version 2
run NetLEO-0-20230428-09:15:50-2083
attr configname NetLEO
attr datetime 20230428-09:15:50
attr experiment NetLEO
attr inifile omnetpp.ini
attr iterationvars ""
attr iterationvarsf ""
attr measurement ""
attr network networks.NetLEO
attr processid 2083
attr repetition 0
attr replication #0
attr resultdir results
attr runnumber 0
attr seedset 0
param *.phase_deg 35
param *.num_of_planes 5
param *.num_of_sat_per_plane 15
param *.distance_between_sats 4000m
param *.active_sats "\"101 102 103 115 212 213 214 215 502 503 504 505\""
param *.hoptime triang(18ms,20ms,22ms)
param *.rte[*].app.ttl 22
param **.appType "\"App\""

vector 0 NetLEO.rte[64].app endToEndDelay:vector ETV
attr interpolationmode none
attr title "end-to-end delay of arrived packets, vector"
attr unit s
vector 1 NetLEO.rte[63].app endToEndDelay:vector ETV
attr interpolationmode none
attr title "end-to-end delay of arrived packets, vector"
attr unit s
vector 2 NetLEO.rte[2].app endToEndDelay:vector ETV
attr interpolationmode none
attr title "end-to-end delay of arrived packets, vector"
attr unit s
vector 3 NetLEO.rte[1].app endToEndDelay:vector ETV
attr interpolationmode none
attr title "end-to-end delay of arrived packets, vector"
attr unit s
vector 4 NetLEO.rte[29].app endToEndDelay:vector ETV
attr interpolationmode none
attr title "end-to-end delay of arrived packets, vector"
attr unit s
vector 5 NetLEO.rte[28].app endToEndDelay:vector ETV
attr interpolationmode none
attr title "end-to-end delay of arrived packets, vector"
attr unit s
vector 6 NetLEO.rte[0].app endToEndDelay:vector ETV
attr interpolationmode none
attr title "end-to-end delay of arrived packets, vector"
attr unit s
vector 7 NetLEO.rte[27].app endToEndDelay:vector ETV
attr interpolationmode none
attr title "end-to-end delay of arrived packets, vector"
attr unit s
vector 8 NetLEO.rte[62].app endToEndDelay:vector ETV
attr interpolationmode none
attr title "end-to-end delay of arrived packets, vector"
attr unit s
vector 9 NetLEO.rte[14].app endToEndDelay:vector ETV
attr interpolationmode none
attr title "end-to-end delay of arrived packets, vector"
attr unit s
vector 10 NetLEO.rte[61].app endToEndDelay:vector ETV
attr interpolationmode none
attr title "end-to-end delay of arrived packets, vector"
attr unit s
vector 11 NetLEO.rte[26].app endToEndDelay:vector ETV
attr interpolationmode none
attr title "end-to-end delay of arrived packets, vector"
attr unit s
0	185	133.018391848957	0.018391848957
0	941	133.182075140597	0.182075140597
0	1199	133.202292476008	0.202292476008
0	2302	133.261028322602	0.261028322602
0	21232	136.018391848957	0.018391848957
0	21988	136.182075140597	0.182075140597
0	22246	136.202292476008	0.202292476008
0	23349	136.261028322602	0.261028322602
0	42279	137.018391848957	0.018391848957
0	43035	137.182075140597	0.182075140597
0	43293	137.202292476008	0.202292476008
0	44396	137.261028322602	0.261028322602
0	63326	138.018391848957	0.018391848957
0	64082	138.182075140597	0.182075140597
0	64340	138.202292476008	0.202292476008
0	65443	138.261028322602	0.261028322602
0	84381	139.018391848957	0.018391848957
0	85452	139.182075140597	0.182075140597
0	85845	139.202292476008	0.202292476008
0	87689	139.261028322602	0.261028322602
0	88634	139.281362449431	0.281362449431
0	115203	141.018391848957	0.018391848957
0	116274	141.182075140597	0.182075140597
0	116667	141.202292476008	0.202292476008
0	118511	141.261028322602	0.261028322602
0	119456	141.281362449431	0.281362449431
0	146018	142.018391848957	0.018391848957
0	146774	142.182075140597	0.182075140597
0	147032	142.202292476008	0.202292476008
0	148135	142.261028322602	0.261028322602
0	165993	144.182075140597	0.182075140597
0	166242	144.202292476008	0.202292476008
0	167282	144.261028322602	0.261028322602
0	182958	145.018391848957	0.018391848957
0	184029	145.182075140597	0.182075140597
0	184422	145.202292476008	0.202292476008
0	186266	145.261028322602	0.261028322602
0	187211	145.281362449431	0.281362449431
0	213780	146.018391848957	0.018391848957
0	214851	146.182075140597	0.182075140597
0	215244	146.202292476008	0.202292476008
0	217088	146.261028322602	0.261028322602
0	218033	146.281362449431	0.281362449431
0	245293	147.182075140597	0.182075140597
0	245542	147.202292476008	0.202292476008
0	246582	147.261028322602	0.261028322602
0	262258	149.018391848957	0.018391848957
0	263329	149.182075140597	0.182075140597
0	263722	149.202292476008	0.202292476008
0	265566	149.261028322602	0.261028322602
0	266511	149.281362449431	0.281362449431
0	293080	150.018391848957	0.018391848957
0	294151	150.182075140597	0.182075140597
0	294544	150.202292476008	0.202292476008
0	296388	150.261028322602	0.261028322602
0	297333	150.281362449431	0.281362449431
0	323895	152.018391848957	0.018391848957
0	324651	152.182075140597	0.182075140597
0	324909	152.202292476008	0.202292476008
0	326012	152.261028322602	0.261028322602
0	343172	153.018391848957	0.018391848957
0	343928	153.182075140597	0.182075140597
0	344186	153.202292476008	0.202292476008
0	345289	153.261028322602	0.261028322602
0	362449	154.018391848957	0.018391848957
0	363205	154.182075140597	0.182075140597
0	363463	154.202292476008	0.202292476008
0	364566	154.261028322602	0.261028322602
0	381726	155.018391848957	0.018391848957
0	382359	155.182075140597	0.182075140597
0	382545	155.202292476008	0.202292476008
0	383948	155.281362449431	0.281362449431
0	398610	156.018391848957	0.018391848957
0	399681	156.182075140597	0.182075140597
0	400074	156.202292476008	0.202292476008
0	401918	156.261028322602	0.261028322602
0	402863	156.281362449431	0.281362449431
0	429425	157.018391848957	0.018391848957
0	430181	157.182075140597	0.182075140597
0	430439	157.202292476008	0.202292476008
0	431542	157.261028322602	0.261028322602
0	449400	158.182075140597	0.182075140597
0	449649	158.202292476008	0.202292476008
0	450689	158.261028322602	0.261028322602
0	466947	160.182075140597	0.182075140597
0	468194	160.261028322602	0.261028322602
0	483189	165.018391848957	0.018391848957
0	485027	165.261028322602	0.261028322602
0	501024	166.018391848957	0.018391848957
0	502862	166.261028322602	0.261028322602
0	518873	167.018391848957	0.018391848957
0	519629	167.182075140597	0.182075140597
0	519887	167.202292476008	0.202292476008
0	520990	167.261028322602	0.261028322602
0	538136	168.018391848957	0.018391848957
0	539974	168.261028322602	0.261028322602
0	555985	172.018391848957	0.018391848957
0	556741	172.182075140597	0.182075140597
0	556999	172.202292476008	0.202292476008
0	558102	172.261028322602	0.261028322602
0	575262	175.018391848957	0.018391848957
0	576018	175.182075140597	0.182075140597
0	576276	175.202292476008	0.202292476008
0	577379	175.261028322602	0.261028322602
0	594539	176.018391848957	0.018391848957
0	595295	176.182075140597	0.182075140597
0	595553	176.202292476008	0.202292476008
0	596656	176.261028322602	0.261028322602
0	613816	177.018391848957	0.018391848957
0	614572	177.182075140597	0.182075140597
0	614830	177.202292476008	0.202292476008
0	615933	177.261028322602	0.261028322602
0	633086	178.018391848957	0.018391848957
0	633983	178.202292476008	0.202292476008
0	635068	178.261028322602	0.261028322602
0	651739	179.018391848957	0.018391848957
0	652495	179.182075140597	0.182075140597
0	652753	179.202292476008	0.202292476008
0	653856	179.261028322602	0.261028322602
0	672562	180.261028322602	0.261028322602
0	684961	182.018391848957	0.018391848957
0	685717	182.182075140597	0.182075140597
0	685975	182.202292476008	0.202292476008
0	687078	182.261028322602	0.261028322602
0	704238	183.018391848957	0.018391848957
0	704994	183.182075140597	0.182075140597
0	705252	183.202292476008	0.202292476008
0	706355	183.261028322602	0.261028322602
0	723532	185.018391848957	0.018391848957
0	724603	185.182075140597	0.182075140597
0	724999	185.202292476008	0.202292476008
0	727008	185.261028322602	0.261028322602
0	728160	185.281362449431	0.281362449431
0	776540	186.018391848957	0.018391848957
0	777245	186.202292476008	0.202292476008
0	778801	186.281362449431	0.281362449431
0	807623	187.261028322602	0.261028322602
0	828938	188.018391848957	0.018391848957
0	830288	188.202292476008	0.202292476008
0	832279	188.261028322602	0.261028322602
0	833422	188.281362449431	0.281362449431
0	881336	192.018391848957	0.018391848957
0	882407	192.182075140597	0.182075140597
0	882803	192.202292476008	0.202292476008
0	884812	192.261028322602	0.261028322602
0	885964	192.281362449431	0.281362449431
0	934351	193.018391848957	0.018391848957
0	935107	193.182075140597	0.182075140597
0	935368	193.202292476008	0.202292476008
0	936612	193.261028322602	0.261028322602
0	969523	194.018391848957	0.018391848957
0	970594	194.182075140597	0.182075140597
0	970990	194.202292476008	0.202292476008
0	972999	194.261028322602	0.261028322602
0	974151	194.281362449431	0.281362449431
0	1022545	195.018391848957	0.018391848957
0	1023616	195.182075140597	0.182075140597
0	1024012	195.202292476008	0.202292476008
0	1026021	195.261028322602	0.261028322602
0	1027173	195.281362449431	0.281362449431
0	1075546	196.018391848957	0.018391848957
0	1077528	196.261028322602	0.261028322602
0	1109266	197.018391848957	0.018391848957
0	1110337	197.182075140597	0.182075140597
0	1110733	197.202292476008	0.202292476008
0	1112742	197.261028322602	0.261028322602
0	1113894	197.281362449431	0.281362449431
0	1162288	198.018391848957	0.018391848957
0	1163359	198.182075140597	0.182075140597
0	1163755	198.202292476008	0.202292476008
0	1165764	198.261028322602	0.261028322602
0	1166916	198.281362449431	0.281362449431
0	1215303	199.018391848957	0.018391848957
0	1216653	199.202292476008	0.202292476008
0	1218644	199.261028322602	0.261028322602
0	1219787	199.281362449431	0.281362449431
0	1267701	200.018391848957	0.018391848957
0	1268772	200.182075140597	0.182075140597
0	1269168	200.202292476008	0.202292476008
0	1271177	200.261028322602	0.261028322602
0	1272329	200.281362449431	0.281362449431
0	1320702	201.018391848957	0.018391848957
0	1322684	201.261028322602	0.261028322602
0	1354408	202.018391848957	0.018391848957
0	1355113	202.202292476008	0.202292476008
0	1356669	202.281362449431	0.281362449431
0	1386713	203.261028322602	0.261028322602
0	1387745	203.281362449431	0.281362449431
0	1424642	204.018391848957	0.018391848957
0	1435429	205.018391848957	0.018391848957
0	1436440	205.182075140597	0.182075140597
0	1436818	205.202292476008	0.202292476008
0	1437322	205.222392609702	0.222392609702
0	1438767	205.261028322602	0.261028322602
0	1439883	205.281362449431	0.281362449431
0	1483627	206.018391848957	0.018391848957
0	1484326	206.182075140597	0.182075140597
0	1484575	206.202292476008	0.202292476008
0	1484878	206.222392609702	0.222392609702
0	1485777	206.261028322602	0.261028322602
0	1515434	207.018391848957	0.018391848957
0	1516445	207.182075140597	0.182075140597
0	1516823	207.202292476008	0.202292476008
0	1517327	207.222392609702	0.222392609702
0	1518772	207.261028322602	0.261028322602
0	1519888	207.281362449431	0.281362449431
0	1564540	208.182075140597	0.182075140597
0	1564903	208.202292476008	0.202292476008
0	1566741	208.261028322602	0.261028322602
0	1567845	208.281362449431	0.281362449431
0	1607295	209.018391848957	0.018391848957
0	1607946	209.182075140597	0.182075140597
0	1608189	209.202292476008	0.202292476008
0	1609376	209.261028322602	0.261028322602
0	1639033	210.018391848957	0.018391848957
0	1640044	210.182075140597	0.182075140597
0	1640422	210.202292476008	0.202292476008
0	1640926	210.222392609702	0.222392609702
0	1642371	210.261028322602	0.261028322602
0	1643487	210.281362449431	0.281362449431
0	1687234	211.018391848957	0.018391848957
0	1688197	211.182075140597	0.182075140597
0	1688569	211.202292476008	0.202292476008
0	1690503	211.261028322602	0.261028322602
0	1691619	211.281362449431	0.281362449431
0	1735363	212.018391848957	0.018391848957
0	1736062	212.182075140597	0.182075140597
0	1736311	212.202292476008	0.202292476008
0	1736614	212.222392609702	0.222392609702
0	1737513	212.261028322602	0.261028322602
0	1767163	213.018391848957	0.018391848957
0	1767862	213.182075140597	0.182075140597
0	1768111	213.202292476008	0.202292476008
0	1768414	213.222392609702	0.222392609702
0	1769313	213.261028322602	0.261028322602
0	1798970	214.018391848957	0.018391848957
0	1799981	214.182075140597	0.182075140597
0	1800359	214.202292476008	0.202292476008
0	1800863	214.222392609702	0.222392609702
0	1802308	214.261028322602	0.261028322602
0	1803424	214.281362449431	0.281362449431
0	1847171	215.018391848957	0.018391848957
0	1848134	215.182075140597	0.182075140597
0	1848506	215.202292476008	0.202292476008
0	1850440	215.261028322602	0.261028322602
0	1851556	215.281362449431	0.281362449431
0	1895313	216.018391848957	0.018391848957
0	1895667	216.182075140597	0.182075140597
0	1895721	216.202292476008	0.202292476008
0	1899266	217.018391848957	0.018391848957
0	1899551	217.182075140597	0.182075140597
0	1899599	217.202292476008	0.202292476008
0	1903076	218.018391848957	0.018391848957
0	1903430	218.182075140597	0.182075140597
0	1903484	218.202292476008	0.202292476008
0	1907344	220.018391848957	0.018391848957
0	1907698	220.182075140597	0.182075140597
0	1907752	220.202292476008	0.202292476008
0	1913605	222.018391848957	0.018391848957
0	1913959	222.182075140597	0.182075140597
0	1914013	222.202292476008	0.202292476008
0	1919551	224.018391848957	0.018391848957
0	1919893	224.202292476008	0.202292476008
0	1923424	225.018391848957	0.018391848957
0	1925266	227.018391848957	0.018391848957
0	1925620	227.182075140597	0.182075140597
0	1925674	227.202292476008	0.202292476008
0	1929226	228.018391848957	0.018391848957
0	1929580	228.182075140597	0.182075140597
0	1929634	228.202292476008	0.202292476008
0	1933186	229.018391848957	0.018391848957
0	1933540	229.182075140597	0.182075140597
0	1933594	229.202292476008	0.202292476008
0	1937139	230.018391848957	0.018391848957
0	1937442	230.182075140597	0.182075140597
0	1941058	231.202292476008	0.202292476008
0	1941110	232.018391848957	0.018391848957
0	1941512	232.182075140597	0.182075140597
0	1941572	232.202292476008	0.202292476008
0	1941647	232.222392609702	0.222392609702
0	1945143	233.018391848957	0.018391848957
0	1945545	233.182075140597	0.182075140597
0	1945605	233.202292476008	0.202292476008
0	1945680	233.222392609702	0.222392609702
0	1949176	234.018391848957	0.018391848957
0	1949578	234.182075140597	0.182075140597
0	1949638	234.202292476008	0.202292476008
0	1949713	234.222392609702	0.222392609702
0	1953209	235.018391848957	0.018391848957
0	1953611	235.182075140597	0.182075140597
0	1953671	235.202292476008	0.202292476008
0	1953746	235.222392609702	0.222392609702
0	1957238	236.018391848957	0.018391848957
0	1957592	236.182075140597	0.182075140597
0	1957646	236.202292476008	0.202292476008
0	1961195	237.018391848957	0.018391848957
0	1961528	237.182075140597	0.182075140597
0	1961582	237.202292476008	0.202292476008
0	1961651	237.222392609702	0.222392609702
0	1965039	238.018391848957	0.018391848957
0	1966591	239.018391848957	0.018391848957
0	1966993	239.182075140597	0.182075140597
0	1967053	239.202292476008	0.202292476008
0	1967128	239.222392609702	0.222392609702
0	1970624	240.018391848957	0.018391848957
0	1971026	240.182075140597	0.182075140597
0	1971086	240.202292476008	0.202292476008
0	1971161	240.222392609702	0.222392609702
0	1974646	241.018391848957	0.018391848957
0	1974988	241.202292476008	0.202292476008
0	1978544	242.018391848957	0.018391848957
0	1978946	242.182075140597	0.182075140597
0	1979006	242.202292476008	0.202292476008
0	1979081	242.222392609702	0.222392609702
0	1982598	243.202292476008	0.202292476008
0	1982625	244.018391848957	0.018391848957
0	1986282	245.018391848957	0.018391848957
0	1986477	245.202292476008	0.202292476008
0	1988032	247.018391848957	0.018391848957
0	1988299	247.202292476008	0.202292476008
0	1991762	248.018391848957	0.018391848957
0	1995615	249.202292476008	0.202292476008
0	1995649	250.018391848957	0.018391848957
0	1999470	251.018391848957	0.018391848957
0	1999812	251.202292476008	0.202292476008
0	2003357	255.018391848957	0.018391848957
0	2003699	255.202292476008	0.202292476008
0	2009552	257.018391848957	0.018391848957
0	2009906	257.182075140597	0.182075140597
0	2009960	257.202292476008	0.202292476008
0	2013498	258.018391848957	0.018391848957
0	2017326	259.018391848957	0.018391848957
0	2017680	259.182075140597	0.182075140597
0	2017734	259.202292476008	0.202292476008
0	2021286	260.018391848957	0.018391848957
0	2021640	260.182075140597	0.182075140597
0	2021694	260.202292476008	0.202292476008
0	2025246	261.018391848957	0.018391848957
0	2025600	261.182075140597	0.182075140597
0	2025654	261.202292476008	0.202292476008
0	2029192	262.018391848957	0.018391848957
0	2033024	263.018391848957	0.018391848957
0	2033426	263.182075140597	0.182075140597
0	2033486	263.202292476008	0.202292476008
0	2033561	263.222392609702	0.222392609702
0	2037053	264.018391848957	0.018391848957
0	2037407	264.182075140597	0.182075140597
0	2037461	264.202292476008	0.202292476008
0	2041014	265.018391848957	0.018391848957
0	2041368	265.182075140597	0.182075140597
0	2041422	265.202292476008	0.202292476008
0	2044960	267.018391848957	0.018391848957
0	2045227	267.202292476008	0.202292476008
0	2048690	268.018391848957	0.018391848957
0	2052543	269.202292476008	0.202292476008
0	2052577	270.018391848957	0.018391848957
0	2058671	272.018391848957	0.018391848957
0	2060487	273.202292476008	0.202292476008
0	2062579	274.018391848957	0.018391848957
0	2066372	275.018391848957	0.018391848957
0	2067913	277.018391848957	0.018391848957
0	2068255	277.202292476008	0.202292476008
0	2072075	278.202292476008	0.202292476008
0	2074146	279.018391848957	0.018391848957
0	2075962	280.202292476008	0.202292476008
0	2078054	281.018391848957	0.018391848957
0	2078327	281.202292476008	0.202292476008
0	2081948	284.018391848957	0.018391848957
0	2082290	284.202292476008	0.202292476008
0	2086110	285.202292476008	0.202292476008
0	2088209	287.018391848957	0.018391848957
0	2088551	287.202292476008	0.202292476008
0	2092096	288.018391848957	0.018391848957
0	2092438	288.202292476008	0.202292476008
0	2095983	290.018391848957	0.018391848957
0	2096325	290.202292476008	0.202292476008
0	2099863	291.018391848957	0.018391848957
0	2103684	293.018391848957	0.018391848957
0	2104026	293.202292476008	0.202292476008
0	2107584	294.018391848957	0.018391848957
0	2112262	296.018391848957	0.018391848957
0	2116979	297.202292476008	0.202292476008
0	2117013	298.018391848957	0.018391848957
0	2121730	299.202292476008	0.202292476008
0	2121743	305.018391848957	0.018391848957
0	2123692	307.018391848957	0.018391848957
0	2124034	307.202292476008	0.202292476008
0	2128443	308.018391848957	0.018391848957
0	2128785	308.202292476008	0.202292476008
0	2133194	310.018391848957	0.018391848957
0	2133536	310.202292476008	0.202292476008
0	2137945	311.018391848957	0.018391848957
0	2138287	311.202292476008	0.202292476008
0	2142696	313.018391848957	0.018391848957
0	2143038	313.202292476008	0.202292476008
0	2147447	314.018391848957	0.018391848957
0	2147789	314.202292476008	0.202292476008
0	2152198	316.018391848957	0.018391848957
0	2152540	316.202292476008	0.202292476008
0	2159685	318.018391848957	0.018391848957
0	2159805	318.202292476008	0.202292476008
0	2161700	319.018391848957	0.018391848957
0	2162042	319.202292476008	0.202292476008
0	2169043	321.018391848957	0.018391848957
0	2169232	321.202292476008	0.202292476008
0	2171477	322.202292476008	0.202292476008
0	2174018	323.018391848957	0.018391848957
0	2178667	324.202292476008	0.202292476008
0	2178783	325.018391848957	0.018391848957
0	2179125	325.202292476008	0.202292476008
0	2183534	327.018391848957	0.018391848957
0	2183876	327.202292476008	0.202292476008
0	2188560	328.202292476008	0.202292476008
0	2191087	329.018391848957	0.018391848957
0	2193311	330.202292476008	0.202292476008
0	2195859	331.018391848957	0.018391848957
0	2200523	332.018391848957	0.018391848957
0	2200643	332.202292476008	0.202292476008
0	2205295	334.018391848957	0.018391848957
0	2205637	334.202292476008	0.202292476008
0	2210018	335.018391848957	0.018391848957
0	2211967	337.018391848957	0.018391848957
0	2212309	337.202292476008	0.202292476008
0	2216718	338.018391848957	0.018391848957
0	2217060	338.202292476008	0.202292476008
0	2221469	340.018391848957	0.018391848957
0	2221811	340.202292476008	0.202292476008
0	2226220	341.018391848957	0.018391848957
0	2226562	341.202292476008	0.202292476008
0	2230971	343.018391848957	0.018391848957
0	2231313	343.202292476008	0.202292476008
0	2235722	344.018391848957	0.018391848957
0	2236064	344.202292476008	0.202292476008
0	2240473	346.018391848957	0.018391848957
0	2240815	346.202292476008	0.202292476008
0	2245217	347.018391848957	0.018391848957
0	2249902	349.018391848957	0.018391848957
0	2250244	349.202292476008	0.202292476008
0	2254646	350.018391848957	0.018391848957
0	2259331	352.018391848957	0.018391848957
0	2259673	352.202292476008	0.202292476008
0	2264357	353.202292476008	0.202292476008
0	2266884	354.018391848957	0.018391848957
0	2268812	355.018391848957	0.018391848957
0	2270911	357.018391848957	0.018391848957
0	2271253	357.202292476008	0.202292476008
0	2275937	358.202292476008	0.202292476008
0	2278464	359.018391848957	0.018391848957
0	2280406	365.018391848957	0.018391848957
0	2280670	365.202292476008	0.202292476008
0	2287914	368.018391848957	0.018391848957
0	2288178	368.202292476008	0.202292476008
0	2290498	369.202292476008	0.202292476008
0	2293025	370.018391848957	0.018391848957
0	2295164	371.202292476008	0.202292476008
0	2295652	373.018391848957	0.018391848957
0	2295772	373.202292476008	0.202292476008
0	2304936	375.018391848957	0.018391848957
0	2305278	375.202292476008	0.202292476008
0	2314199	377.018391848957	0.018391848957
0	2314541	377.202292476008	0.202292476008
0	2323455	378.018391848957	0.018391848957
0	2332684	379.202292476008	0.202292476008
0	2332718	380.018391848957	0.018391848957
0	2341916	381.018391848957	0.018391848957
0	2342258	381.202292476008	0.202292476008
0	2351172	383.018391848957	0.018391848957
0	2351436	383.202292476008	0.202292476008
0	2355363	384.222392609702	0.222392609702
0	2355521	385.018391848957	0.018391848957
0	2355641	385.202292476008	0.202292476008
0	2359503	387.018391848957	0.018391848957
0	2359623	387.202292476008	0.202292476008
0	2363191	388.018391848957	0.018391848957
0	2363455	388.202292476008	0.202292476008
0	2367467	390.018391848957	0.018391848957
0	2367587	390.202292476008	0.202292476008
0	2371155	391.018391848957	0.018391848957
0	2371419	391.202292476008	0.202292476008
0	2375435	393.018391848957	0.018391848957
0	2375609	393.202292476008	0.202292476008
0	2375642	393.222392609702	0.222392609702
0	2379192	394.018391848957	0.018391848957
0	2379456	394.202292476008	0.202292476008
0	2383601	397.018391848957	0.018391848957
0	2384517	399.018391848957	0.018391848957
0	2385171	401.018391848957	0.018391848957
0	2385802	402.018391848957	0.018391848957
0	2386452	404.018391848957	0.018391848957
0	2386824	405.018391848957	0.018391848957
0	2387193	407.018391848957	0.018391848957
0	2387689	408.018391848957	0.018391848957
0	2388350	410.018391848957	0.018391848957
0	2388981	411.018391848957	0.018391848957
0	2389642	413.018391848957	0.018391848957
0	2390273	414.018391848957	0.018391848957
0	2390927	416.018391848957	0.018391848957
0	2391580	418.018391848957	0.018391848957
0	2392226	420.018391848957	0.018391848957
0	2392872	421.018391848957	0.018391848957
0	2393518	423.018391848957	0.018391848957
0	2394160	424.018391848957	0.018391848957
0	2394810	426.018391848957	0.018391848957
0	2395456	428.018391848957	0.018391848957
0	2396095	429.018391848957	0.018391848957
0	2396748	431.018391848957	0.018391848957
0	2397387	432.018391848957	0.018391848957
0	2398040	434.018391848957	0.018391848957
0	2398679	435.018391848957	0.018391848957
0	2399187	437.018391848957	0.018391848957
0	2399826	438.018391848957	0.018391848957
0	2400472	440.018391848957	0.018391848957
0	2400980	441.018391848957	0.018391848957
0	2401764	443.018391848957	0.018391848957
0	2402268	444.018391848957	0.018391848957
0	2403063	447.018391848957	0.018391848957
0	2403709	448.018391848957	0.018391848957
0	2404351	450.018391848957	0.018391848957
0	2404997	452.018391848957	0.018391848957
0	2405497	453.018391848957	0.018391848957
0	2406506	455.018391848957	0.018391848957
0	2406879	457.018391848957	0.018391848957
0	2407518	458.018391848957	0.018391848957
0	2408387	460.018391848957	0.018391848957
0	2408896	461.018391848957	0.018391848957
0	2409761	463.018391848957	0.018391848957
0	2410261	464.018391848957	0.018391848957
0	2410775	466.018391848957	0.018391848957
0	2411360	467.018391848957	0.018391848957
0	2412097	469.018391848957	0.018391848957
0	2412820	470.018391848957	0.018391848957
0	2413565	472.018391848957	0.018391848957
0	2413613	472.038233272415	0.038233272415
0	2413964	472.180605226933	0.180605226933
0	2420729	472.396888990758	0.396888990758
0	2422955	472.416181667852	0.416181667852
0	2432517	473.018391848957	0.018391848957
0	2436865	474.038233272415	0.038233272415
0	2437168	474.180605226933	0.180605226933
0	2442610	474.396888990758	0.396888990758
0	2444284	474.416181667852	0.416181667852
0	2451512	475.018391848957	0.018391848957
0	2451548	475.038233272415	0.038233272415
0	2458493	475.396888990758	0.396888990758
0	2460713	475.416181667852	0.416181667852
0	2470291	477.018391848957	0.018391848957
0	2470339	477.038233272415	0.038233272415
0	2470690	477.180605226933	0.180605226933
0	2477455	477.396888990758	0.396888990758
0	2479681	477.416181667852	0.416181667852
0	2489261	478.018391848957	0.018391848957
0	2489297	478.038233272415	0.038233272415
0	2496242	478.396888990758	0.396888990758
0	2498462	478.416181667852	0.416181667852
0	2508117	479.180605226933	0.180605226933
0	2508238	480.018391848957	0.018391848957
0	2508274	480.038233272415	0.038233272415
0	2515219	480.396888990758	0.396888990758
0	2517439	480.416181667852	0.416181667852
0	2527017	481.018391848957	0.018391848957
0	2527065	481.038233272415	0.038233272415
0	2527416	481.180605226933	0.180605226933
0	2534181	481.396888990758	0.396888990758
0	2536407	481.416181667852	0.416181667852
0	2546014	483.018391848957	0.018391848957
0	2546062	483.038233272415	0.038233272415
0	2546422	483.180605226933	0.180605226933
0	2550792	483.359827998657	0.359827998657
0	2552094	483.379120675751	0.379120675751
0	2564492	484.018391848957	0.018391848957
0	2564528	484.038233272415	0.038233272415
0	2569093	484.359827998657	0.359827998657
0	2570389	484.379120675751	0.379120675751
0	2582856	485.180605226933	0.180605226933
0	2582977	486.018391848957	0.018391848957
0	2583013	486.038233272415	0.038233272415
0	2587578	486.359827998657	0.359827998657
0	2588874	486.379120675751	0.379120675751
0	2601264	487.018391848957	0.018391848957
0	2601312	487.038233272415	0.038233272415
0	2601672	487.180605226933	0.180605226933
0	2606042	487.359827998657	0.359827998657
0	2607344	487.379120675751	0.379120675751
0	2619826	488.180605226933	0.180605226933
0	2619947	489.018391848957	0.018391848957
0	2619983	489.038233272415	0.038233272415
0	2624548	489.359827998657	0.359827998657
0	2625844	489.379120675751	0.379120675751
0	2638234	490.018391848957	0.018391848957
0	2638282	490.038233272415	0.038233272415
0	2638642	490.180605226933	0.180605226933
0	2643012	490.359827998657	0.359827998657
0	2644314	490.379120675751	0.379120675751
0	2656796	491.180605226933	0.180605226933
0	2656917	492.018391848957	0.018391848957
0	2656953	492.038233272415	0.038233272415
0	2661518	492.359827998657	0.359827998657
0	2662814	492.379120675751	0.379120675751
0	2675204	493.018391848957	0.018391848957
0	2675252	493.038233272415	0.038233272415
0	2675612	493.180605226933	0.180605226933
0	2679982	493.359827998657	0.359827998657
0	2681284	493.379120675751	0.379120675751
0	2693766	494.180605226933	0.180605226933
0	2693887	495.018391848957	0.018391848957
0	2693923	495.038233272415	0.038233272415
0	2698488	495.359827998657	0.359827998657
0	2699784	495.379120675751	0.379120675751
0	2712167	496.018391848957	0.018391848957
0	2712203	496.038233272415	0.038233272415
0	2716768	496.359827998657	0.359827998657
0	2718064	496.379120675751	0.379120675751
0	2730531	497.180605226933	0.180605226933
0	2730652	498.018391848957	0.018391848957
0	2730688	498.038233272415	0.038233272415
0	2735253	498.359827998657	0.359827998657
0	2736549	498.379120675751	0.379120675751
0	2748939	499.018391848957	0.018391848957
0	2748987	499.038233272415	0.038233272415
0	2749347	499.180605226933	0.180605226933
0	2753717	499.359827998657	0.359827998657
0	2755019	499.379120675751	0.379120675751
0	2767501	500.180605226933	0.180605226933
0	2767622	501.018391848957	0.018391848957
0	2767658	501.038233272415	0.038233272415
0	2772223	501.359827998657	0.359827998657
0	2773519	501.379120675751	0.379120675751
0	2785909	502.018391848957	0.018391848957
0	2785957	502.038233272415	0.038233272415
0	2786317	502.180605226933	0.180605226933
0	2790687	502.359827998657	0.359827998657
0	2791989	502.379120675751	0.379120675751
0	2804387	504.018391848957	0.018391848957
0	2804423	504.038233272415	0.038233272415
0	2808988	504.359827998657	0.359827998657
0	2810284	504.379120675751	0.379120675751
0	2822674	505.018391848957	0.018391848957
0	2822722	505.038233272415	0.038233272415
0	2823082	505.180605226933	0.180605226933
0	2827452	505.359827998657	0.359827998657
0	2828754	505.379120675751	0.379120675751
0	2841141	507.018391848957	0.018391848957
0	2841306	507.180605226933	0.180605226933
0	2845757	508.018391848957	0.018391848957
0	2845805	508.038233272415	0.038233272415
0	2846165	508.180605226933	0.180605226933
0	2850535	508.359827998657	0.359827998657
0	2851837	508.379120675751	0.379120675751
0	2864220	509.038233272415	0.038233272415
0	2867815	510.018391848957	0.018391848957
0	2868166	510.180605226933	0.180605226933
0	2871984	510.359827998657	0.359827998657
0	2873142	510.379120675751	0.379120675751
0	2882706	511.018391848957	0.018391848957
0	2882721	511.038233272415	0.038233272415
0	2890729	512.038233272415	0.038233272415
0	2891035	512.180605226933	0.180605226933
0	2894718	512.359827998657	0.359827998657
0	2895744	512.379120675751	0.379120675751
0	2904778	513.018391848957	0.018391848957
0	2908770	513.359827998657	0.359827998657
0	2909922	513.379120675751	0.379120675751
0	2919478	514.018391848957	0.018391848957
0	2919505	514.038233272415	0.038233272415
0	2919700	514.180605226933	0.180605226933
0	2927699	515.038233272415	0.038233272415
0	2928005	515.180605226933	0.180605226933
0	2931688	515.359827998657	0.359827998657
0	2932714	515.379120675751	0.379120675751
0	2941745	517.018391848957	0.018391848957
0	2941772	517.038233272415	0.038233272415
0	2941967	517.180605226933	0.180605226933
0	2949927	518.018391848957	0.018391848957
0	2949963	518.038233272415	0.038233272415
0	2954528	518.359827998657	0.359827998657
0	2955824	518.379120675751	0.379120675751
0	2968491	519.180605226933	0.180605226933
0	2971622	519.359827998657	0.359827998657
0	2972504	519.379120675751	0.379120675751
0	2978715	520.018391848957	0.018391848957
0	2978742	520.038233272415	0.038233272415
0	2978937	520.180605226933	0.180605226933
0	2986897	521.018391848957	0.018391848957
0	2986933	521.038233272415	0.038233272415
0	2991498	521.359827998657	0.359827998657
0	2992794	521.379120675751	0.379120675751
0	3008408	522.359827998657	0.359827998657
0	3009284	522.379120675751	0.379120675751
0	3015480	523.018391848957	0.018391848957
0	3015507	523.038233272415	0.038233272415
0	3015702	523.180605226933	0.180605226933
0	3023662	524.018391848957	0.018391848957
0	3023698	524.038233272415	0.038233272415
0	3028263	524.359827998657	0.359827998657
0	3029559	524.379120675751	0.379120675751
0	3041949	526.018391848957	0.018391848957
0	3041997	526.038233272415	0.038233272415
0	3042357	526.180605226933	0.180605226933
0	3046727	526.359827998657	0.359827998657
0	3048029	526.379120675751	0.379120675751
0	3060427	527.018391848957	0.018391848957
0	3060463	527.038233272415	0.038233272415
0	3065028	527.359827998657	0.359827998657
0	3066324	527.379120675751	0.379120675751
0	3078791	528.180605226933	0.180605226933
0	3078912	529.018391848957	0.018391848957
0	3078948	529.038233272415	0.038233272415
0	3083513	529.359827998657	0.359827998657
0	3084809	529.379120675751	0.379120675751
0	3097199	530.018391848957	0.018391848957
0	3097247	530.038233272415	0.038233272415
0	3097607	530.180605226933	0.180605226933
0	3101977	530.359827998657	0.359827998657
0	3103279	530.379120675751	0.379120675751
0	3115684	533.018391848957	0.018391848957
0	3115732	533.038233272415	0.038233272415
0	3116092	533.180605226933	0.180605226933
0	3120462	533.359827998657	0.359827998657
0	3121764	533.379120675751	0.379120675751
0	3134162	534.018391848957	0.018391848957
0	3134198	534.038233272415	0.038233272415
0	3138763	534.359827998657	0.359827998657
0	3140059	534.379120675751	0.379120675751
0	3152449	536.018391848957	0.018391848957
0	3152497	536.038233272415	0.038233272415
0	3152857	536.180605226933	0.180605226933
0	3157227	536.359827998657	0.359827998657
0	3158529	536.379120675751	0.379120675751
0	3170927	537.018391848957	0.018391848957
0	3170963	537.038233272415	0.038233272415
0	3175528	537.359827998657	0.359827998657
0	3176824	537.379120675751	0.379120675751
0	3189291	538.180605226933	0.180605226933
0	3189419	539.018391848957	0.018391848957
0	3189467	539.038233272415	0.038233272415
0	3189827	539.180605226933	0.180605226933
0	3194197	539.359827998657	0.359827998657
0	3195499	539.379120675751	0.379120675751
0	3207897	540.018391848957	0.018391848957
0	3207933	540.038233272415	0.038233272415
0	3212498	540.359827998657	0.359827998657
0	3213794	540.379120675751	0.379120675751
0	3226261	541.180605226933	0.180605226933
0	3226382	542.018391848957	0.018391848957
0	3226418	542.038233272415	0.038233272415
0	3230983	542.359827998657	0.359827998657
0	3232279	542.379120675751	0.379120675751
0	3244669	543.018391848957	0.018391848957
0	3244717	543.038233272415	0.038233272415
0	3245077	543.180605226933	0.180605226933
0	3249447	543.359827998657	0.359827998657
0	3250749	543.379120675751	0.379120675751
0	3263154	545.018391848957	0.018391848957
0	3263202	545.038233272415	0.038233272415
0	3263562	545.180605226933	0.180605226933
0	3267932	545.359827998657	0.359827998657
0	3269234	545.379120675751	0.379120675751
0	3281632	546.018391848957	0.018391848957
0	3281668	546.038233272415	0.038233272415
0	3286233	546.359827998657	0.359827998657
0	3287529	546.379120675751	0.379120675751
0	3299996	547.180605226933	0.180605226933
0	3300117	548.018391848957	0.018391848957
0	3300153	548.038233272415	0.038233272415
0	3304718	548.359827998657	0.359827998657
0	3306014	548.379120675751	0.379120675751
0	3318404	549.018391848957	0.018391848957
0	3318452	549.038233272415	0.038233272415
0	3318812	549.180605226933	0.180605226933
0	3323182	549.359827998657	0.359827998657
0	3324484	549.379120675751	0.379120675751
0	3336882	551.018391848957	0.018391848957
0	3336918	551.038233272415	0.038233272415
0	3341483	551.359827998657	0.359827998657
0	3342779	551.379120675751	0.379120675751
0	3355169	552.018391848957	0.018391848957
0	3355217	552.038233272415	0.038233272415
0	3355577	552.180605226933	0.180605226933
0	3359947	552.359827998657	0.359827998657
0	3361249	552.379120675751	0.379120675751
0	3373654	554.018391848957	0.018391848957
0	3373702	554.038233272415	0.038233272415
0	3374062	554.180605226933	0.180605226933
0	3378432	554.359827998657	0.359827998657
0	3379734	554.379120675751	0.379120675751
0	3392118	555.018391848957	0.018391848957
0	3392133	555.038233272415	0.038233272415
0	3400109	557.018391848957	0.018391848957
0	3400157	557.038233272415	0.038233272415
0	3400517	557.180605226933	0.180605226933
0	3404887	557.359827998657	0.359827998657
0	3406189	557.379120675751	0.379120675751
0	3418587	558.018391848957	0.018391848957
0	3418623	558.038233272415	0.038233272415
0	3423188	558.359827998657	0.359827998657
0	3424484	558.379120675751	0.379120675751
0	3436951	559.180605226933	0.180605226933
0	3437072	560.018391848957	0.018391848957
0	3437108	560.038233272415	0.038233272415
0	3441673	560.359827998657	0.359827998657
0	3442969	560.379120675751	0.379120675751
0	3455369	561.018391848957	0.018391848957
0	3455417	561.038233272415	0.038233272415
0	3455777	561.180605226933	0.180605226933
0	3461299	561.359827998657	0.359827998657
0	3463489	561.379120675751	0.379120675751
0	3489442	563.018391848957	0.018391848957
0	3489490	563.038233272415	0.038233272415
0	3489850	563.180605226933	0.180605226933
0	3495372	563.359827998657	0.359827998657
0	3497562	563.379120675751	0.379120675751
0	3523515	564.018391848957	0.018391848957
0	3523563	564.038233272415	0.038233272415
0	3523923	564.180605226933	0.180605226933
0	3529445	564.359827998657	0.359827998657
0	3531635	564.379120675751	0.379120675751
0	3557588	566.018391848957	0.018391848957
0	3557636	566.038233272415	0.038233272415
0	3557996	566.180605226933	0.180605226933
0	3563518	566.359827998657	0.359827998657
0	3565708	566.379120675751	0.379120675751
0	3591654	567.018391848957	0.018391848957
0	3591690	567.038233272415	0.038233272415
0	3597407	567.359827998657	0.359827998657
0	3599591	567.379120675751	0.379120675751
0	3625606	568.180605226933	0.180605226933
0	3625727	569.018391848957	0.018391848957
0	3625763	569.038233272415	0.038233272415
0	3631480	569.359827998657	0.359827998657
0	3633664	569.379120675751	0.379120675751
0	3659602	570.018391848957	0.018391848957
0	3659650	570.038233272415	0.038233272415
0	3660010	570.180605226933	0.180605226933
0	3665532	570.359827998657	0.359827998657
0	3667722	570.379120675751	0.379120675751
0	3693675	572.018391848957	0.018391848957
0	3693723	572.038233272415	0.038233272415
0	3694083	572.180605226933	0.180605226933
0	3699605	572.359827998657	0.359827998657
0	3701795	572.379120675751	0.379120675751
0	3727741	573.018391848957	0.018391848957
0	3727777	573.038233272415	0.038233272415
0	3733494	573.359827998657	0.359827998657
0	3735678	573.379120675751	0.379120675751
0	3761616	575.018391848957	0.018391848957
0	3761664	575.038233272415	0.038233272415
0	3762024	575.180605226933	0.180605226933
0	3767546	575.359827998657	0.359827998657
0	3769736	575.379120675751	0.379120675751
0	3795682	576.018391848957	0.018391848957
0	3795718	576.038233272415	0.038233272415
0	3801435	576.359827998657	0.359827998657
0	3803619	576.379120675751	0.379120675751
0	3829634	577.180605226933	0.180605226933
0	3829762	578.018391848957	0.018391848957
0	3829810	578.038233272415	0.038233272415
0	3830170	578.180605226933	0.180605226933
0	3835692	578.359827998657	0.359827998657
0	3837882	578.379120675751	0.379120675751
0	3863828	579.018391848957	0.018391848957
0	3863864	579.038233272415	0.038233272415
0	3869581	579.359827998657	0.359827998657
0	3871765	579.379120675751	0.379120675751
0	3897780	580.180605226933	0.180605226933
0	3897901	581.018391848957	0.018391848957
0	3897937	581.038233272415	0.038233272415
0	3903654	581.359827998657	0.359827998657
0	3905838	581.379120675751	0.379120675751
0	3931776	582.018391848957	0.018391848957
0	3931824	582.038233272415	0.038233272415
0	3932184	582.180605226933	0.180605226933
0	3937706	582.359827998657	0.359827998657
0	3939896	582.379120675751	0.379120675751
0	3965849	584.018391848957	0.018391848957
0	3965897	584.038233272415	0.038233272415
0	3966257	584.180605226933	0.180605226933
0	3971779	584.359827998657	0.359827998657
0	3973969	584.379120675751	0.379120675751
0	3999900	585.038233272415	0.038233272415
0	4006877	587.018391848957	0.018391848957
0	4006925	587.038233272415	0.038233272415
0	4007285	587.180605226933	0.180605226933
0	4012807	587.359827998657	0.359827998657
0	4014997	587.379120675751	0.379120675751
0	4040943	588.018391848957	0.018391848957
0	4040979	588.038233272415	0.038233272415
0	4046696	588.359827998657	0.359827998657
0	4048880	588.379120675751	0.379120675751
0	4074895	589.180605226933	0.180605226933
0	4075023	590.018391848957	0.018391848957
0	4075071	590.038233272415	0.038233272415
0	4075431	590.180605226933	0.180605226933
0	4080953	590.359827998657	0.359827998657
0	4083143	590.379120675751	0.379120675751
0	4109089	591.018391848957	0.018391848957
0	4109125	591.038233272415	0.038233272415
0	4114842	591.359827998657	0.359827998657
0	4117026	591.379120675751	0.379120675751
0	4143041	592.180605226933	0.180605226933
0	4143172	593.018391848957	0.018391848957
0	4143208	593.038233272415	0.038233272415
0	4145221	593.322162995133	0.322162995133
0	4145893	593.341455672227	0.341455672227
0	4159181	594.038233272415	0.038233272415
0	4161846	595.018391848957	0.018391848957
0	4162176	595.180605226933	0.180605226933
0	4163721	595.322162995133	0.322162995133
0	4164291	595.341455672227	0.341455672227
0	4175425	596.018391848957	0.018391848957
0	4175461	596.038233272415	0.038233272415
0	4177474	596.322162995133	0.322162995133
0	4178146	596.341455672227	0.341455672227
0	4191456	598.018391848957	0.018391848957
0	4191504	598.038233272415	0.038233272415
0	4191843	598.180605226933	0.180605226933
0	4193670	598.322162995133	0.322162995133
0	4194348	598.341455672227	0.341455672227
0	4207683	599.018391848957	0.018391848957
0	4207725	599.038233272415	0.038233272415
0	4208109	599.200649411662	0.200649411662
0	4209801	599.322162995133	0.322162995133
0	4210473	599.341455672227	0.341455672227
0	4223809	600.180605226933	0.180605226933
0	4223879	601.038233272415	0.038233272415
0	4224185	601.200649411662	0.200649411662
0	4225520	601.322162995133	0.322162995133
0	4226072	601.341455672227	0.341455672227
0	4236674	602.018391848957	0.018391848957
0	4236725	602.038233272415	0.038233272415
0	4237058	602.180605226933	0.180605226933
0	4237163	602.200649411662	0.200649411662
0	4238858	602.322162995133	0.322162995133
0	4239530	602.341455672227	0.341455672227
0	4252879	603.038233272415	0.038233272415
0	4253158	603.180605226933	0.180605226933
0	4253239	603.200649411662	0.200649411662
0	4254577	603.322162995133	0.322162995133
0	4255129	603.341455672227	0.341455672227
0	4265702	604.018391848957	0.018391848957
0	4268988	605.038233272415	0.038233272415
0	4271661	606.018391848957	0.018391848957
0	4271712	606.038233272415	0.038233272415
0	4272045	606.180605226933	0.180605226933
0	4272150	606.200649411662	0.200649411662
0	4273845	606.322162995133	0.322162995133
0	4274517	606.341455672227	0.341455672227
0	4287831	608.018391848957	0.018391848957
0	4287882	608.038233272415	0.038233272415
0	4288215	608.180605226933	0.180605226933
0	4288320	608.200649411662	0.200649411662
0	4290015	608.322162995133	0.322162995133
0	4290687	608.341455672227	0.341455672227
0	4304001	609.018391848957	0.018391848957
0	4304052	609.038233272415	0.038233272415
0	4304385	609.180605226933	0.180605226933
0	4304490	609.200649411662	0.200649411662
0	4306185	609.322162995133	0.322162995133
0	4306857	609.341455672227	0.341455672227
0	4320206	611.038233272415	0.038233272415
0	4320485	611.180605226933	0.180605226933
0	4320566	611.200649411662	0.200649411662
0	4321904	611.322162995133	0.322162995133
0	4322456	611.341455672227	0.341455672227
0	4333051	612.018391848957	0.018391848957
0	4333093	612.038233272415	0.038233272415
0	4333477	612.200649411662	0.200649411662
0	4335169	612.322162995133	0.322162995133
0	4335841	612.341455672227	0.341455672227
0	4349133	613.018391848957	0.018391848957
0	4349247	613.180605226933	0.180605226933
0	4352530	614.038233272415	0.038233272415
0	4352836	614.200649411662	0.200649411662
0	4354171	614.322162995133	0.322162995133
0	4354723	614.341455672227	0.341455672227
0	4365303	615.018391848957	0.018391848957
0	4365417	615.180605226933	0.180605226933
0	4368681	616.018391848957	0.018391848957
0	4368732	616.038233272415	0.038233272415
0	4369065	616.180605226933	0.180605226933
0	4369170	616.200649411662	0.200649411662
0	4370865	616.322162995133	0.322162995133
0	4371537	616.341455672227	0.341455672227
0	4384851	618.018391848957	0.018391848957
0	4384902	618.038233272415	0.038233272415
0	4385235	618.180605226933	0.180605226933
0	4385340	618.200649411662	0.200649411662
0	4387035	618.322162995133	0.322162995133
0	4387707	618.341455672227	0.341455672227
0	4401021	619.018391848957	0.018391848957
0	4401072	619.038233272415	0.038233272415
0	4401405	619.180605226933	0.180605226933
0	4401510	619.200649411662	0.200649411662
0	4403205	619.322162995133	0.322162995133
0	4403877	619.341455672227	0.341455672227
0	4417191	621.018391848957	0.018391848957
0	4417242	621.038233272415	0.038233272415
0	4417575	621.180605226933	0.180605226933
0	4417680	621.200649411662	0.200649411662
0	4419375	621.322162995133	0.322162995133
0	4420047	621.341455672227	0.341455672227
0	4433361	622.018391848957	0.018391848957
0	4433412	622.038233272415	0.038233272415
0	4433745	622.180605226933	0.180605226933
0	4433850	622.200649411662	0.200649411662
0	4435545	622.322162995133	0.322162995133
0	4436217	622.341455672227	0.341455672227
0	4449531	624.018391848957	0.018391848957
0	4449582	624.038233272415	0.038233272415
0	4449915	624.180605226933	0.180605226933
0	4450020	624.200649411662	0.200649411662
0	4451715	624.322162995133	0.322162995133
0	4452387	624.341455672227	0.341455672227
0	4465701	625.018391848957	0.018391848957
0	4465752	625.038233272415	0.038233272415
0	4466085	625.180605226933	0.180605226933
0	4466190	625.200649411662	0.200649411662
0	4467885	625.322162995133	0.322162995133
0	4468557	625.341455672227	0.341455672227
0	4481871	627.018391848957	0.018391848957
0	4481922	627.038233272415	0.038233272415
0	4482255	627.180605226933	0.180605226933
0	4482360	627.200649411662	0.200649411662
0	4484055	627.322162995133	0.322162995133
0	4484727	627.341455672227	0.341455672227
0	4498034	628.018391848957	0.018391848957
0	4498076	628.038233272415	0.038233272415
0	4498460	628.200649411662	0.200649411662
0	4500152	628.322162995133	0.322162995133
0	4500824	628.341455672227	0.341455672227
0	4514160	629.180605226933	0.180605226933
0	4514211	630.018391848957	0.018391848957
0	4514262	630.038233272415	0.038233272415
0	4514595	630.180605226933	0.180605226933
0	4514700	630.200649411662	0.200649411662
0	4516395	630.322162995133	0.322162995133
0	4517067	630.341455672227	0.341455672227
0	4530374	631.018391848957	0.018391848957
0	4530416	631.038233272415	0.038233272415
0	4530800	631.200649411662	0.200649411662
0	4532492	631.322162995133	0.322162995133
0	4533164	631.341455672227	0.341455672227
0	4546500	632.180605226933	0.180605226933
0	4546544	633.018391848957	0.018391848957
0	4546586	633.038233272415	0.038233272415
0	4546970	633.200649411662	0.200649411662
0	4548662	633.322162995133	0.322162995133
0	4549334	633.341455672227	0.341455672227
0	4562664	634.038233272415	0.038233272415
0	4562865	634.180605226933	0.180605226933
0	4562916	634.200649411662	0.200649411662
0	4563954	634.341455672227	0.341455672227
0	4569812	635.018391848957	0.018391848957
0	4570994	635.322162995133	0.322162995133
0	4578811	636.018391848957	0.018391848957
0	4578853	636.038233272415	0.038233272415
0	4579237	636.200649411662	0.200649411662
0	4580929	636.322162995133	0.322162995133
0	4581601	636.341455672227	0.341455672227
0	4594937	637.180605226933	0.180605226933
0	4595023	638.038233272415	0.038233272415
0	4595302	638.180605226933	0.180605226933
0	4595383	638.200649411662	0.200649411662
0	4596721	638.322162995133	0.322162995133
0	4597273	638.341455672227	0.341455672227
0	4607868	639.018391848957	0.018391848957
0	4607910	639.038233272415	0.038233272415
0	4608294	639.200649411662	0.200649411662
0	4609986	639.322162995133	0.322162995133
0	4610658	639.341455672227	0.341455672227
0	4623994	640.180605226933	0.180605226933
0	4624031	641.018391848957	0.018391848957
0	4624061	641.038233272415	0.038233272415
0	4624337	641.200649411662	0.200649411662
0	4625849	641.341455672227	0.341455672227
0	4634441	642.018391848957	0.018391848957
0	4634492	642.038233272415	0.038233272415
0	4634825	642.180605226933	0.180605226933
0	4634930	642.200649411662	0.200649411662
0	4636625	642.322162995133	0.322162995133
0	4637297	642.341455672227	0.341455672227
0	4650611	644.018391848957	0.018391848957
0	4650662	644.038233272415	0.038233272415
0	4650995	644.180605226933	0.180605226933
0	4651100	644.200649411662	0.200649411662
0	4652795	644.322162995133	0.322162995133
0	4653467	644.341455672227	0.341455672227
0	4666775	645.018391848957	0.018391848957
0	4666817	645.038233272415	0.038233272415
0	4667201	645.200649411662	0.200649411662
0	4668893	645.322162995133	0.322162995133
0	4669565	645.341455672227	0.341455672227
0	4682901	646.180605226933	0.180605226933
0	4682971	647.038233272415	0.038233272415
0	4683277	647.200649411662	0.200649411662
0	4684612	647.322162995133	0.322162995133
0	4685164	647.341455672227	0.341455672227
0	4695801	648.038233272415	0.038233272415
0	4696080	648.180605226933	0.180605226933
0	4696161	648.200649411662	0.200649411662
0	4697499	648.322162995133	0.322162995133
0	4698051	648.341455672227	0.341455672227
0	4708688	650.038233272415	0.038233272415
0	4708967	650.180605226933	0.180605226933
0	4709048	650.200649411662	0.200649411662
0	4710386	650.322162995133	0.322162995133
0	4710938	650.341455672227	0.341455672227
0	4721556	651.038233272415	0.038233272415
0	4721757	651.180605226933	0.180605226933
0	4721808	651.200649411662	0.200649411662
0	4722846	651.341455672227	0.341455672227
0	4729435	652.322162995133	0.322162995133
0	4734443	653.038233272415	0.038233272415
0	4734644	653.180605226933	0.180605226933
0	4734695	653.200649411662	0.200649411662
0	4735733	653.341455672227	0.341455672227
0	4741632	654.038233272415	0.038233272415
0	4741938	654.200649411662	0.200649411662
0	4743273	654.322162995133	0.322162995133
0	4743825	654.341455672227	0.341455672227
0	4754449	655.180605226933	0.180605226933
0	4754535	656.038233272415	0.038233272415
0	4754814	656.180605226933	0.180605226933
0	4754895	656.200649411662	0.200649411662
0	4756233	656.322162995133	0.322162995133
0	4756785	656.341455672227	0.341455672227
0	4767406	658.038233272415	0.038233272415
0	4767619	658.180605226933	0.180605226933
0	4767676	658.200649411662	0.200649411662
0	4768585	658.322162995133	0.322162995133
0	4775900	660.038233272415	0.038233272415
0	4776113	660.180605226933	0.180605226933
0	4776170	660.200649411662	0.200649411662
0	4777079	660.322162995133	0.322162995133
0	4784410	662.038233272415	0.038233272415
0	4784689	662.180605226933	0.180605226933
0	4784770	662.200649411662	0.200649411662
0	4786108	662.322162995133	0.322162995133
0	4786660	662.341455672227	0.341455672227
0	4797297	663.038233272415	0.038233272415
0	4797576	663.180605226933	0.180605226933
0	4797657	663.200649411662	0.200649411662
0	4798995	663.322162995133	0.322162995133
0	4799547	663.341455672227	0.341455672227
0	4810184	665.038233272415	0.038233272415
0	4810463	665.180605226933	0.180605226933
0	4810544	665.200649411662	0.200649411662
0	4811882	665.322162995133	0.322162995133
0	4812434	665.341455672227	0.341455672227
0	4823036	666.038233272415	0.038233272415
0	4823171	666.180605226933	0.180605226933
0	4823198	666.200649411662	0.200649411662
0	4826538	667.322162995133	0.322162995133
0	4831546	668.038233272415	0.038233272415
0	4831747	668.180605226933	0.180605226933
0	4831798	668.200649411662	0.200649411662
0	4832836	668.341455672227	0.341455672227
0	4838735	669.038233272415	0.038233272415
0	4838948	669.180605226933	0.180605226933
0	4839005	669.200649411662	0.200649411662
0	4839914	669.322162995133	0.322162995133
0	4847230	671.038233272415	0.038233272415
0	4847365	671.180605226933	0.180605226933
0	4847392	671.200649411662	0.200649411662
0	4850591	672.038233272415	0.038233272415
0	4850867	672.180605226933	0.180605226933
0	4850957	672.200649411662	0.200649411662
0	4856431	672.420414902524	0.420414902524
0	4861069	674.038233272415	0.038233272415
0	4861492	675.038233272415	0.038233272415
0	4861915	677.038233272415	0.038233272415
0	4862357	678.038233272415	0.038233272415
0	4863032	680.038233272415	0.038233272415
0	4863455	681.038233272415	0.038233272415
0	4863878	683.038233272415	0.038233272415
0	4864291	684.038233272415	0.038233272415
0	4864724	686.038233272415	0.038233272415
0	4865147	688.038233272415	0.038233272415
0	4865589	689.038233272415	0.038233272415
0	4866264	691.038233272415	0.038233272415
0	4866687	692.038233272415	0.038233272415
0	4867268	696.038233272415	0.038233272415
0	4868472	698.038233272415	0.038233272415
0	4868656	699.038233272415	0.038233272415
0	4869589	701.038233272415	0.038233272415
0	4869754	704.038233272415	0.038233272415
0	4870177	706.038233272415	0.038233272415
0	4870609	707.038233272415	0.038233272415
0	4871174	709.038233272415	0.038233272415
0	4871842	710.038233272415	0.038233272415
0	4872398	712.038233272415	0.038233272415
0	4872811	713.038233272415	0.038233272415
0	4873253	715.038233272415	0.038233272415
0	4874057	717.038233272415	0.038233272415
0	4874222	718.038233272415	0.038233272415
0	4874794	720.038233272415	0.038233272415
0	4874821	720.059640540703	0.059640540703
0	4875409	722.038233272415	0.038233272415
0	4875460	722.059640540703	0.059640540703
0	4876225	723.038233272415	0.038233272415
0	4876252	723.059640540703	0.059640540703
0	4876814	725.038233272415	0.038233272415
0	4877379	726.038233272415	0.038233272415
0	4877820	728.038233272415	0.038233272415
0	4878372	729.038233272415	0.038233272415
0	4878396	729.059640540703	0.059640540703
0	4878775	730.059640540703	0.059640540703
0	4878949	731.038233272415	0.038233272415
0	4879504	732.038233272415	0.038233272415
0	4879540	732.059640540703	0.059640540703
0	4880210	734.038233272415	0.038233272415
0	4880752	736.038233272415	0.038233272415
0	4881045	737.038233272415	0.038233272415
0	4881603	739.038233272415	0.038233272415
0	4882164	741.038233272415	0.038233272415
0	4882483	742.038233272415	0.038233272415
0	4882525	742.059640540703	0.059640540703
0	4883175	743.059640540703	0.059640540703
0	4883564	744.038233272415	0.038233272415
0	4883875	745.059640540703	0.059640540703
0	4884274	746.038233272415	0.038233272415
0	4884298	746.059640540703	0.059640540703
0	4884965	748.038233272415	0.038233272415
0	4885284	749.038233272415	0.038233272415
0	4885810	750.059640540703	0.059640540703
0	4886003	751.038233272415	0.038233272415
0	4886845	752.038233272415	0.038233272415
0	4886905	752.059640540703	0.059640540703
0	4887768	754.038233272415	0.038233272415
0	4888106	755.038233272415	0.038233272415
0	4888166	755.059640540703	0.059640540703
0	4889013	757.038233272415	0.038233272415
0	4889212	758.038233272415	0.038233272415
0	4890548	760.038233272415	0.038233272415
0	4890851	761.038233272415	0.038233272415
0	4890887	761.059640540703	0.059640540703
0	4891399	762.059640540703	0.059640540703
0	4891677	763.038233272415	0.038233272415
0	4891970	764.038233272415	0.038233272415
0	4892389	765.059640540703	0.059640540703
0	4892661	766.038233272415	0.038233272415
0	4892679	766.059640540703	0.059640540703
0	4893144	768.038233272415	0.038233272415
0	4893204	768.059640540703	0.059640540703
0	4894080	769.038233272415	0.038233272415
0	4894116	769.059640540703	0.059640540703
0	4894799	771.038233272415	0.038233272415
0	4894853	771.059640540703	0.059640540703
0	4895641	772.038233272415	0.038233272415
0	4895701	772.059640540703	0.059640540703
0	4896741	774.038233272415	0.038233272415
0	4896795	774.059640540703	0.059640540703
0	4897683	776.038233272415	0.038233272415
0	4898139	777.059640540703	0.059640540703
0	4898680	778.038233272415	0.038233272415
0	4898722	778.059640540703	0.059640540703
0	4899354	779.038233272415	0.038233272415
0	4899773	780.059640540703	0.059640540703
0	4900064	781.038233272415	0.038233272415
0	4900100	781.059640540703	0.059640540703
0	4900619	782.038233272415	0.038233272415
0	4901080	784.038233272415	0.038233272415
0	4901140	784.059640540703	0.059640540703
0	4902051	785.038233272415	0.038233272415
0	4902111	785.059640540703	0.059640540703
0	4903003	787.038233272415	0.038233272415
0	4903045	787.059640540703	0.059640540703
0	4903722	788.038233272415	0.038233272415
0	4903782	788.059640540703	0.059640540703
0	4904693	791.038233272415	0.038233272415
0	4904753	791.059640540703	0.059640540703
0	4905645	792.038233272415	0.038233272415
0	4905687	792.059640540703	0.059640540703
0	4906345	794.038233272415	0.038233272415
0	4906387	794.059640540703	0.059640540703
0	4907045	795.038233272415	0.038233272415
0	4907087	795.059640540703	0.059640540703
0	4907745	797.038233272415	0.038233272415
0	4907787	797.059640540703	0.059640540703
0	4908410	798.038233272415	0.038233272415
0	4908428	798.059640540703	0.059640540703
0	4909126	800.038233272415	0.038233272415
0	4909150	800.059640540703	0.059640540703
0	4909539	801.038233272415	0.038233272415
0	4909557	801.059640540703	0.059640540703
0	4910130	803.038233272415	0.038233272415
0	4910172	803.059640540703	0.059640540703
0	4910795	804.038233272415	0.038233272415
0	4910813	804.059640540703	0.059640540703
0	4911369	806.038233272415	0.038233272415
0	4911405	806.059640540703	0.059640540703
0	4911905	808.038233272415	0.038233272415
0	4911923	808.059640540703	0.059640540703
0	4912208	809.038233272415	0.038233272415
0	4912244	809.059640540703	0.059640540703
0	4912763	811.038233272415	0.038233272415
0	4912799	811.059640540703	0.059640540703
0	4913299	812.038233272415	0.038233272415
0	4913317	812.059640540703	0.059640540703
0	4913602	814.038233272415	0.038233272415
0	4913638	814.059640540703	0.059640540703
0	4914157	815.038233272415	0.038233272415
0	4914193	815.059640540703	0.059640540703
0	4914693	817.038233272415	0.038233272415
0	4914711	817.059640540703	0.059640540703
0	4915015	818.038233272415	0.038233272415
0	4915069	818.059640540703	0.059640540703
0	4915803	820.038233272415	0.038233272415
0	4915821	820.059640540703	0.059640540703
0	4916087	821.038233272415	0.038233272415
0	4916105	821.059640540703	0.059640540703
0	4916390	823.038233272415	0.038233272415
0	4916426	823.059640540703	0.059640540703
0	4916946	824.038233272415	0.038233272415
0	4916982	824.059640540703	0.059640540703
0	4917482	826.038233272415	0.038233272415
0	4917500	826.059640540703	0.059640540703
0	4917785	828.038233272415	0.038233272415
0	4917821	828.059640540703	0.059640540703
0	4918321	830.038233272415	0.038233272415
0	4918339	830.059640540703	0.059640540703
0	4918605	832.038233272415	0.038233272415
0	4918623	832.059640540703	0.059640540703
0	4918889	833.038233272415	0.038233272415
0	4918907	833.059640540703	0.059640540703
0	4919200	835.059640540703	0.059640540703
0	4919602	836.038233272415	0.038233272415
0	4919638	836.059640540703	0.059640540703
0	4920138	838.038233272415	0.038233272415
0	4920156	838.059640540703	0.059640540703
0	4920422	839.038233272415	0.038233272415
0	4920440	839.059640540703	0.059640540703
0	4920725	841.038233272415	0.038233272415
0	4920761	841.059640540703	0.059640540703
0	4921261	842.038233272415	0.038233272415
0	4921279	842.059640540703	0.059640540703
0	4921564	844.038233272415	0.038233272415
0	4921600	844.059640540703	0.059640540703
0	4922119	845.038233272415	0.038233272415
0	4922155	845.059640540703	0.059640540703
0	4922675	847.038233272415	0.038233272415
0	4922717	847.059640540703	0.059640540703
0	4923166	848.038233272415	0.038233272415
0	4923196	848.059640540703	0.059640540703
0	4923536	854.059640540703	0.059640540703
0	4923752	867.038233272415	0.038233272415
0	4923910	868.038233272415	0.038233272415
0	4923940	868.059640540703	0.059640540703
0	4924280	870.059640540703	0.059640540703
0	4924503	874.059640540703	0.059640540703
1	203	133.019939344608	0.019939344608
1	1184	133.202014485205	0.202014485205
1	1499	133.222231820616	0.222231820616
1	2815	133.28096766721	0.28096766721
1	21250	136.019939344608	0.019939344608
1	22231	136.202014485205	0.202014485205
1	22546	136.222231820616	0.222231820616
1	23862	136.28096766721	0.28096766721
1	42297	137.019939344608	0.019939344608
1	43278	137.202014485205	0.202014485205
1	43593	137.222231820616	0.222231820616
1	44909	137.28096766721	0.28096766721
1	63344	138.019939344608	0.019939344608
1	64325	138.202014485205	0.202014485205
1	64640	138.222231820616	0.222231820616
1	65956	138.28096766721	0.28096766721
1	84399	139.019939344608	0.019939344608
1	85830	139.202014485205	0.202014485205
1	86340	139.222231820616	0.222231820616
1	88580	139.28096766721	0.28096766721
1	89645	139.301301794039	0.301301794039
1	115221	141.019939344608	0.019939344608
1	116652	141.202014485205	0.202014485205
1	117162	141.222231820616	0.222231820616
1	119402	141.28096766721	0.28096766721
1	120467	141.301301794039	0.301301794039
1	146036	142.019939344608	0.019939344608
1	147017	142.202014485205	0.202014485205
1	147332	142.222231820616	0.222231820616
1	148624	142.28096766721	0.28096766721
1	165303	144.019939344608	0.019939344608
1	166227	144.202014485205	0.202014485205
1	166527	144.222231820616	0.222231820616
1	167753	144.28096766721	0.28096766721
1	182976	145.019939344608	0.019939344608
1	184407	145.202014485205	0.202014485205
1	184917	145.222231820616	0.222231820616
1	187157	145.28096766721	0.28096766721
1	188222	145.301301794039	0.301301794039
1	213798	146.019939344608	0.019939344608
1	215229	146.202014485205	0.202014485205
1	215739	146.222231820616	0.222231820616
1	217979	146.28096766721	0.28096766721
1	219044	146.301301794039	0.301301794039
1	244603	147.019939344608	0.019939344608
1	245527	147.202014485205	0.202014485205
1	245827	147.222231820616	0.222231820616
1	247053	147.28096766721	0.28096766721
1	262276	149.019939344608	0.019939344608
1	263707	149.202014485205	0.202014485205
1	264217	149.222231820616	0.222231820616
1	266457	149.28096766721	0.28096766721
1	267522	149.301301794039	0.301301794039
1	293098	150.019939344608	0.019939344608
1	294529	150.202014485205	0.202014485205
1	295039	150.222231820616	0.222231820616
1	297279	150.28096766721	0.28096766721
1	298344	150.301301794039	0.301301794039
1	323913	152.019939344608	0.019939344608
1	324894	152.202014485205	0.202014485205
1	325209	152.222231820616	0.222231820616
1	326501	152.28096766721	0.28096766721
1	343190	153.019939344608	0.019939344608
1	344171	153.202014485205	0.202014485205
1	344486	153.222231820616	0.222231820616
1	345778	153.28096766721	0.28096766721
1	362467	154.019939344608	0.019939344608
1	363448	154.202014485205	0.202014485205
1	363763	154.222231820616	0.222231820616
1	365055	154.28096766721	0.28096766721
1	381738	155.019939344608	0.019939344608
1	382542	155.202014485205	0.202014485205
1	382794	155.222231820616	0.222231820616
1	384491	155.301301794039	0.301301794039
1	398628	156.019939344608	0.019939344608
1	400059	156.202014485205	0.202014485205
1	400569	156.222231820616	0.222231820616
1	402809	156.28096766721	0.28096766721
1	403874	156.301301794039	0.301301794039
1	429443	157.019939344608	0.019939344608
1	430424	157.202014485205	0.202014485205
1	430739	157.222231820616	0.222231820616
1	432031	157.28096766721	0.28096766721
1	448710	158.019939344608	0.019939344608
1	449634	158.202014485205	0.202014485205
1	449934	158.222231820616	0.222231820616
1	451160	158.28096766721	0.28096766721
1	466359	160.019939344608	0.019939344608
1	467169	160.202014485205	0.202014485205
1	468650	160.28096766721	0.28096766721
1	483201	165.019939344608	0.019939344608
1	485492	165.28096766721	0.28096766721
1	501036	166.019939344608	0.019939344608
1	503327	166.28096766721	0.28096766721
1	518891	167.019939344608	0.019939344608
1	519872	167.202014485205	0.202014485205
1	520187	167.222231820616	0.222231820616
1	521479	167.28096766721	0.28096766721
1	538148	168.019939344608	0.019939344608
1	540439	168.28096766721	0.28096766721
1	556003	172.019939344608	0.019939344608
1	556984	172.202014485205	0.202014485205
1	557299	172.222231820616	0.222231820616
1	558591	172.28096766721	0.28096766721
1	575280	175.019939344608	0.019939344608
1	576261	175.202014485205	0.202014485205
1	576576	175.222231820616	0.222231820616
1	577868	175.28096766721	0.28096766721
1	594557	176.019939344608	0.019939344608
1	595538	176.202014485205	0.202014485205
1	595853	176.222231820616	0.222231820616
1	597145	176.28096766721	0.28096766721
1	613834	177.019939344608	0.019939344608
1	614815	177.202014485205	0.202014485205
1	615130	177.222231820616	0.222231820616
1	616422	177.28096766721	0.28096766721
1	633098	178.019939344608	0.019939344608
1	634277	178.222231820616	0.222231820616
1	635548	178.28096766721	0.28096766721
1	651757	179.019939344608	0.019939344608
1	652738	179.202014485205	0.202014485205
1	653053	179.222231820616	0.222231820616
1	654345	179.28096766721	0.28096766721
1	672970	180.28096766721	0.28096766721
1	684979	182.019939344608	0.019939344608
1	685960	182.202014485205	0.202014485205
1	686275	182.222231820616	0.222231820616
1	687567	182.28096766721	0.28096766721
1	704256	183.019939344608	0.019939344608
1	705237	183.202014485205	0.202014485205
1	705552	183.222231820616	0.222231820616
1	706844	183.28096766721	0.28096766721
1	723550	185.019939344608	0.019939344608
1	724984	185.202014485205	0.202014485205
1	725506	185.222231820616	0.222231820616
1	728082	185.28096766721	0.28096766721
1	729537	185.301301794039	0.301301794039
1	776546	186.019939344608	0.019939344608
1	777500	186.222231820616	0.222231820616
1	779515	186.301301794039	0.301301794039
1	808115	187.28096766721	0.28096766721
1	828950	188.019939344608	0.019939344608
1	830789	188.222231820616	0.222231820616
1	833344	188.28096766721	0.28096766721
1	834784	188.301301794039	0.301301794039
1	881354	192.019939344608	0.019939344608
1	882788	192.202014485205	0.202014485205
1	883310	192.222231820616	0.222231820616
1	885886	192.28096766721	0.28096766721
1	887341	192.301301794039	0.301301794039
1	934369	193.019939344608	0.019939344608
1	935353	193.202014485205	0.202014485205
1	935680	193.222231820616	0.222231820616
1	937224	193.28096766721	0.28096766721
1	969541	194.019939344608	0.019939344608
1	970975	194.202014485205	0.202014485205
1	971497	194.222231820616	0.222231820616
1	974073	194.28096766721	0.28096766721
1	975528	194.301301794039	0.301301794039
1	1022563	195.019939344608	0.019939344608
1	1023997	195.202014485205	0.202014485205
1	1024519	195.222231820616	0.222231820616
1	1027095	195.28096766721	0.28096766721
1	1028550	195.301301794039	0.301301794039
1	1075558	196.019939344608	0.019939344608
1	1078116	196.28096766721	0.28096766721
1	1109284	197.019939344608	0.019939344608
1	1110718	197.202014485205	0.202014485205
1	1111240	197.222231820616	0.222231820616
1	1113816	197.28096766721	0.28096766721
1	1115271	197.301301794039	0.301301794039
1	1162306	198.019939344608	0.019939344608
1	1163740	198.202014485205	0.202014485205
1	1164262	198.222231820616	0.222231820616
1	1166838	198.28096766721	0.28096766721
1	1168293	198.301301794039	0.301301794039
1	1215315	199.019939344608	0.019939344608
1	1217154	199.222231820616	0.222231820616
1	1219709	199.28096766721	0.28096766721
1	1221149	199.301301794039	0.301301794039
1	1267719	200.019939344608	0.019939344608
1	1269153	200.202014485205	0.202014485205
1	1269675	200.222231820616	0.222231820616
1	1272251	200.28096766721	0.28096766721
1	1273706	200.301301794039	0.301301794039
1	1320714	201.019939344608	0.019939344608
1	1323272	201.28096766721	0.28096766721
1	1354414	202.019939344608	0.019939344608
1	1355368	202.222231820616	0.222231820616
1	1357383	202.301301794039	0.301301794039
1	1387667	203.28096766721	0.28096766721
1	1388894	203.301301794039	0.301301794039
1	1424648	204.019939344608	0.019939344608
1	1435447	205.019939344608	0.019939344608
1	1436803	205.202014485205	0.202014485205
1	1437307	205.222231820616	0.222231820616
1	1437985	205.24233195431	0.24233195431
1	1439805	205.28096766721	0.28096766721
1	1441212	205.301301794039	0.301301794039
1	1483645	206.019939344608	0.019939344608
1	1484560	206.202014485205	0.202014485205
1	1484875	206.222231820616	0.222231820616
1	1485301	206.24233195431	0.24233195431
1	1486359	206.28096766721	0.28096766721
1	1515452	207.019939344608	0.019939344608
1	1516808	207.202014485205	0.202014485205
1	1517312	207.222231820616	0.222231820616
1	1517990	207.24233195431	0.24233195431
1	1519810	207.28096766721	0.28096766721
1	1521217	207.301301794039	0.301301794039
1	1563643	208.019939344608	0.019939344608
1	1564888	208.202014485205	0.202014485205
1	1565368	208.222231820616	0.222231820616
1	1567767	208.28096766721	0.28096766721
1	1569090	208.301301794039	0.301301794039
1	1607313	209.019939344608	0.019939344608
1	1608174	209.202014485205	0.202014485205
1	1608483	209.222231820616	0.222231820616
1	1609958	209.28096766721	0.28096766721
1	1639051	210.019939344608	0.019939344608
1	1640407	210.202014485205	0.202014485205
1	1640911	210.222231820616	0.222231820616
1	1641589	210.24233195431	0.24233195431
1	1643409	210.28096766721	0.28096766721
1	1644816	210.301301794039	0.301301794039
1	1687252	211.019939344608	0.019939344608
1	1688554	211.202014485205	0.202014485205
1	1689052	211.222231820616	0.222231820616
1	1691541	211.28096766721	0.28096766721
1	1692948	211.301301794039	0.301301794039
1	1735381	212.019939344608	0.019939344608
1	1736296	212.202014485205	0.202014485205
1	1736611	212.222231820616	0.222231820616
1	1737037	212.24233195431	0.24233195431
1	1738095	212.28096766721	0.28096766721
1	1767181	213.019939344608	0.019939344608
1	1768096	213.202014485205	0.202014485205
1	1768411	213.222231820616	0.222231820616
1	1768837	213.24233195431	0.24233195431
1	1769895	213.28096766721	0.28096766721
1	1798988	214.019939344608	0.019939344608
1	1800344	214.202014485205	0.202014485205
1	1800848	214.222231820616	0.222231820616
1	1801526	214.24233195431	0.24233195431
1	1803346	214.28096766721	0.28096766721
1	1804753	214.301301794039	0.301301794039
1	1847189	215.019939344608	0.019939344608
1	1848491	215.202014485205	0.202014485205
1	1848989	215.222231820616	0.222231820616
1	1851478	215.28096766721	0.28096766721
1	1852885	215.301301794039	0.301301794039
1	1895331	216.019939344608	0.019939344608
1	1895718	216.202014485205	0.202014485205
1	1895787	216.222231820616	0.222231820616
1	1899284	217.019939344608	0.019939344608
1	1899596	217.202014485205	0.202014485205
1	1899659	217.222231820616	0.222231820616
1	1903094	218.019939344608	0.019939344608
1	1903481	218.202014485205	0.202014485205
1	1903550	218.222231820616	0.222231820616
1	1907362	220.019939344608	0.019939344608
1	1907749	220.202014485205	0.202014485205
1	1907818	220.222231820616	0.222231820616
1	1911292	221.019939344608	0.019939344608
1	1913623	222.019939344608	0.019939344608
1	1914010	222.202014485205	0.202014485205
1	1914079	222.222231820616	0.222231820616
1	1917533	223.019939344608	0.019939344608
1	1919563	224.019939344608	0.019939344608
1	1919959	224.222231820616	0.222231820616
1	1925284	227.019939344608	0.019939344608
1	1925671	227.202014485205	0.202014485205
1	1925740	227.222231820616	0.222231820616
1	1929244	228.019939344608	0.019939344608
1	1929631	228.202014485205	0.202014485205
1	1929700	228.222231820616	0.222231820616
1	1933204	229.019939344608	0.019939344608
1	1933591	229.202014485205	0.202014485205
1	1933660	229.222231820616	0.222231820616
1	1937157	230.019939344608	0.019939344608
1	1937487	230.202014485205	0.202014485205
1	1941064	231.222231820616	0.222231820616
1	1941128	232.019939344608	0.019939344608
1	1941569	232.202014485205	0.202014485205
1	1941644	232.222231820616	0.222231820616
1	1941743	232.24233195431	0.24233195431
1	1945161	233.019939344608	0.019939344608
1	1945602	233.202014485205	0.202014485205
1	1945677	233.222231820616	0.222231820616
1	1945776	233.24233195431	0.24233195431
1	1949194	234.019939344608	0.019939344608
1	1949635	234.202014485205	0.202014485205
1	1949710	234.222231820616	0.222231820616
1	1949809	234.24233195431	0.24233195431
1	1953227	235.019939344608	0.019939344608
1	1953668	235.202014485205	0.202014485205
1	1953743	235.222231820616	0.222231820616
1	1953842	235.24233195431	0.24233195431
1	1957256	236.019939344608	0.019939344608
1	1957643	236.202014485205	0.202014485205
1	1957712	236.222231820616	0.222231820616
1	1961213	237.019939344608	0.019939344608
1	1961579	237.202014485205	0.202014485205
1	1961648	237.222231820616	0.222231820616
1	1961741	237.24233195431	0.24233195431
1	1966609	239.019939344608	0.019939344608
1	1967050	239.202014485205	0.202014485205
1	1967125	239.222231820616	0.222231820616
1	1967224	239.24233195431	0.24233195431
1	1970642	240.019939344608	0.019939344608
1	1971083	240.202014485205	0.202014485205
1	1971158	240.222231820616	0.222231820616
1	1971257	240.24233195431	0.24233195431
1	1974658	241.019939344608	0.019939344608
1	1975054	241.222231820616	0.222231820616
1	1978562	242.019939344608	0.019939344608
1	1979003	242.202014485205	0.202014485205
1	1979078	242.222231820616	0.222231820616
1	1979177	242.24233195431	0.24233195431
1	1982604	243.222231820616	0.222231820616
1	1982637	244.019939344608	0.019939344608
1	1986507	245.222231820616	0.222231820616
1	1988044	247.019939344608	0.019939344608
1	1988359	247.222231820616	0.222231820616
1	1991774	248.019939344608	0.019939344608
1	1995621	249.222231820616	0.222231820616
1	1995661	250.019939344608	0.019939344608
1	1999482	251.019939344608	0.019939344608
1	1999878	251.222231820616	0.222231820616
1	2003369	255.019939344608	0.019939344608
1	2003765	255.222231820616	0.222231820616
1	2007239	256.019939344608	0.019939344608
1	2009570	257.019939344608	0.019939344608
1	2009957	257.202014485205	0.202014485205
1	2010026	257.222231820616	0.222231820616
1	2013510	258.019939344608	0.019939344608
1	2017344	259.019939344608	0.019939344608
1	2017731	259.202014485205	0.202014485205
1	2017800	259.222231820616	0.222231820616
1	2021304	260.019939344608	0.019939344608
1	2021691	260.202014485205	0.202014485205
1	2021760	260.222231820616	0.222231820616
1	2025264	261.019939344608	0.019939344608
1	2025651	261.202014485205	0.202014485205
1	2025720	261.222231820616	0.222231820616
1	2029204	262.019939344608	0.019939344608
1	2033042	263.019939344608	0.019939344608
1	2033483	263.202014485205	0.202014485205
1	2033558	263.222231820616	0.222231820616
1	2033657	263.24233195431	0.24233195431
1	2037071	264.019939344608	0.019939344608
1	2037458	264.202014485205	0.202014485205
1	2037527	264.222231820616	0.222231820616
1	2041032	265.019939344608	0.019939344608
1	2041419	265.202014485205	0.202014485205
1	2041488	265.222231820616	0.222231820616
1	2044972	267.019939344608	0.019939344608
1	2045287	267.222231820616	0.222231820616
1	2048702	268.019939344608	0.019939344608
1	2052549	269.222231820616	0.222231820616
1	2052589	270.019939344608	0.019939344608
1	2056393	271.019939344608	0.019939344608
1	2060214	273.019939344608	0.019939344608
1	2060535	273.222231820616	0.222231820616
1	2062591	274.019939344608	0.019939344608
1	2067925	277.019939344608	0.019939344608
1	2068321	277.222231820616	0.222231820616
1	2071802	278.019939344608	0.019939344608
1	2072123	278.222231820616	0.222231820616
1	2075689	280.019939344608	0.019939344608
1	2076010	280.222231820616	0.222231820616
1	2078060	281.019939344608	0.019939344608
1	2078387	281.222231820616	0.222231820616
1	2081960	284.019939344608	0.019939344608
1	2082356	284.222231820616	0.222231820616
1	2085837	285.019939344608	0.019939344608
1	2086158	285.222231820616	0.222231820616
1	2088221	287.019939344608	0.019939344608
1	2088617	287.222231820616	0.222231820616
1	2092108	288.019939344608	0.019939344608
1	2092504	288.222231820616	0.222231820616
1	2095995	290.019939344608	0.019939344608
1	2096391	290.222231820616	0.222231820616
1	2099875	291.019939344608	0.019939344608
1	2103696	293.019939344608	0.019939344608
1	2104092	293.222231820616	0.222231820616
1	2107596	294.019939344608	0.019939344608
1	2112274	296.019939344608	0.019939344608
1	2116985	297.222231820616	0.222231820616
1	2117025	298.019939344608	0.019939344608
1	2121736	299.222231820616	0.222231820616
1	2123704	307.019939344608	0.019939344608
1	2124100	307.222231820616	0.222231820616
1	2128455	308.019939344608	0.019939344608
1	2128851	308.222231820616	0.222231820616
1	2133206	310.019939344608	0.019939344608
1	2133602	310.222231820616	0.222231820616
1	2137957	311.019939344608	0.019939344608
1	2138353	311.222231820616	0.222231820616
1	2142708	313.019939344608	0.019939344608
1	2143104	313.222231820616	0.222231820616
1	2147459	314.019939344608	0.019939344608
1	2147855	314.222231820616	0.222231820616
1	2152210	316.019939344608	0.019939344608
1	2152606	316.222231820616	0.222231820616
1	2156944	317.019939344608	0.019939344608
1	2159829	318.222231820616	0.222231820616
1	2161712	319.019939344608	0.019939344608
1	2162108	319.222231820616	0.222231820616
1	2166433	320.019939344608	0.019939344608
1	2169262	321.222231820616	0.222231820616
1	2171204	322.019939344608	0.019939344608
1	2171525	322.222231820616	0.222231820616
1	2174024	323.019939344608	0.019939344608
1	2178679	324.222231820616	0.222231820616
1	2178795	325.019939344608	0.019939344608
1	2179191	325.222231820616	0.222231820616
1	2183546	327.019939344608	0.019939344608
1	2183942	327.222231820616	0.222231820616
1	2188287	328.019939344608	0.019939344608
1	2188608	328.222231820616	0.222231820616
1	2193038	330.019939344608	0.019939344608
1	2193359	330.222231820616	0.222231820616
1	2195871	331.019939344608	0.019939344608
1	2200667	332.222231820616	0.222231820616
1	2202533	333.019939344608	0.019939344608
1	2205307	334.019939344608	0.019939344608
1	2205703	334.222231820616	0.222231820616
1	2211979	337.019939344608	0.019939344608
1	2212375	337.222231820616	0.222231820616
1	2216730	338.019939344608	0.019939344608
1	2217126	338.222231820616	0.222231820616
1	2221481	340.019939344608	0.019939344608
1	2221877	340.222231820616	0.222231820616
1	2226232	341.019939344608	0.019939344608
1	2226628	341.222231820616	0.222231820616
1	2230983	343.019939344608	0.019939344608
1	2231379	343.222231820616	0.222231820616
1	2235734	344.019939344608	0.019939344608
1	2236130	344.222231820616	0.222231820616
1	2240485	346.019939344608	0.019939344608
1	2240881	346.222231820616	0.222231820616
1	2245229	347.019939344608	0.019939344608
1	2249914	349.019939344608	0.019939344608
1	2250310	349.222231820616	0.222231820616
1	2254658	350.019939344608	0.019939344608
1	2259343	352.019939344608	0.019939344608
1	2259739	352.222231820616	0.222231820616
1	2264084	353.019939344608	0.019939344608
1	2264405	353.222231820616	0.222231820616
1	2270923	357.019939344608	0.019939344608
1	2271319	357.222231820616	0.222231820616
1	2275664	358.019939344608	0.019939344608
1	2275985	358.222231820616	0.222231820616
1	2280706	365.222231820616	0.222231820616
1	2282710	366.019939344608	0.019939344608
1	2285447	367.019939344608	0.019939344608
1	2288214	368.222231820616	0.222231820616
1	2290225	369.019939344608	0.019939344608
1	2290546	369.222231820616	0.222231820616
1	2295182	371.222231820616	0.222231820616
1	2295796	373.222231820616	0.222231820616
1	2299342	374.019939344608	0.019939344608
1	2304948	375.019939344608	0.019939344608
1	2305344	375.222231820616	0.222231820616
1	2314211	377.019939344608	0.019939344608
1	2314607	377.222231820616	0.222231820616
1	2323467	378.019939344608	0.019939344608
1	2332690	379.222231820616	0.222231820616
1	2332730	380.019939344608	0.019939344608
1	2341928	381.019939344608	0.019939344608
1	2342324	381.222231820616	0.222231820616
1	2351472	383.222231820616	0.222231820616
1	2355381	384.24233195431	0.24233195431
1	2355665	385.222231820616	0.222231820616
1	2359647	387.222231820616	0.222231820616
1	2363491	388.222231820616	0.222231820616
1	2367611	390.222231820616	0.222231820616
1	2371455	391.222231820616	0.222231820616
1	2375639	393.222231820616	0.222231820616
1	2375678	393.24233195431	0.24233195431
1	2379492	394.222231820616	0.222231820616
1	2413583	472.019841423458	0.019841423458
1	2414075	472.200544571541	0.200544571541
1	2422979	472.416828335366	0.416828335366
1	2426057	472.43612101246	0.43612101246
1	2436838	474.019841423458	0.019841423458
1	2437270	474.200544571541	0.200544571541
1	2444308	474.416828335366	0.416828335366
1	2446594	474.43612101246	0.43612101246
1	2451524	475.019841423458	0.019841423458
1	2460737	475.416828335366	0.416828335366
1	2463809	475.43612101246	0.43612101246
1	2470309	477.019841423458	0.019841423458
1	2470801	477.200544571541	0.200544571541
1	2479705	477.416828335366	0.416828335366
1	2482783	477.43612101246	0.43612101246
1	2489273	478.019841423458	0.019841423458
1	2498486	478.416828335366	0.416828335366
1	2501558	478.43612101246	0.43612101246
1	2508129	479.200544571541	0.200544571541
1	2508250	480.019841423458	0.019841423458
1	2517463	480.416828335366	0.416828335366
1	2520535	480.43612101246	0.43612101246
1	2527035	481.019841423458	0.019841423458
1	2527527	481.200544571541	0.200544571541
1	2536431	481.416828335366	0.416828335366
1	2539509	481.43612101246	0.43612101246
1	2546032	483.019841423458	0.019841423458
1	2546548	483.200544571541	0.200544571541
[...]
8	4179142	596.362356048954	0.362356048954
8	4180219	596.381648726048	0.381648726048
8	4191486	598.020253709213	0.020253709213
8	4192089	598.220798280754	0.220798280754
8	4195350	598.362356048954	0.362356048954
8	4196433	598.381648726048	0.381648726048
8	4207707	599.020253709213	0.020253709213
8	4208361	599.240842465483	0.240842465483
8	4211469	599.362356048954	0.362356048954
8	4212546	599.381648726048	0.381648726048
8	4223821	600.220798280754	0.220798280754
8	4224389	601.240842465483	0.240842465483
8	4226870	601.362356048954	0.362356048954
8	4227725	601.381648726048	0.381648726048
8	4236707	602.020253709213	0.020253709213
8	4237310	602.220798280754	0.220798280754
8	4237418	602.240842465483	0.240842465483
8	4240526	602.362356048954	0.362356048954
8	4241603	602.381648726048	0.381648726048
8	4253362	603.220798280754	0.220798280754
8	4253446	603.240842465483	0.240842465483
8	4255927	603.362356048954	0.362356048954
8	4256782	603.381648726048	0.381648726048
8	4265708	604.020253709213	0.020253709213
8	4271694	606.020253709213	0.020253709213
8	4272297	606.220798280754	0.220798280754
8	4272405	606.240842465483	0.240842465483
8	4275513	606.362356048954	0.362356048954
8	4276590	606.381648726048	0.381648726048
8	4287864	608.020253709213	0.020253709213
8	4288467	608.220798280754	0.220798280754
8	4288575	608.240842465483	0.240842465483
8	4291683	608.362356048954	0.362356048954
8	4292760	608.381648726048	0.381648726048
8	4304034	609.020253709213	0.020253709213
8	4304637	609.220798280754	0.220798280754
8	4304745	609.240842465483	0.240842465483
8	4307853	609.362356048954	0.362356048954
8	4308930	609.381648726048	0.381648726048
8	4320689	611.220798280754	0.220798280754
8	4320773	611.240842465483	0.240842465483
8	4323254	611.362356048954	0.362356048954
8	4324109	611.381648726048	0.381648726048
8	4333075	612.020253709213	0.020253709213
8	4333729	612.240842465483	0.240842465483
8	4336837	612.362356048954	0.362356048954
8	4337914	612.381648726048	0.381648726048
8	4349148	613.020253709213	0.020253709213
8	4349307	613.220798280754	0.220798280754
8	4353040	614.240842465483	0.240842465483
8	4355521	614.362356048954	0.362356048954
8	4356376	614.381648726048	0.381648726048
8	4365318	615.020253709213	0.020253709213
8	4365477	615.220798280754	0.220798280754
8	4368714	616.020253709213	0.020253709213
8	4369317	616.220798280754	0.220798280754
8	4369425	616.240842465483	0.240842465483
8	4372533	616.362356048954	0.362356048954
8	4373610	616.381648726048	0.381648726048
8	4384884	618.020253709213	0.020253709213
8	4385487	618.220798280754	0.220798280754
8	4385595	618.240842465483	0.240842465483
8	4388703	618.362356048954	0.362356048954
8	4389780	618.381648726048	0.381648726048
8	4401054	619.020253709213	0.020253709213
8	4401657	619.220798280754	0.220798280754
8	4401765	619.240842465483	0.240842465483
8	4404873	619.362356048954	0.362356048954
8	4405950	619.381648726048	0.381648726048
8	4417224	621.020253709213	0.020253709213
8	4417827	621.220798280754	0.220798280754
8	4417935	621.240842465483	0.240842465483
8	4421043	621.362356048954	0.362356048954
8	4422120	621.381648726048	0.381648726048
8	4433394	622.020253709213	0.020253709213
8	4433997	622.220798280754	0.220798280754
8	4434105	622.240842465483	0.240842465483
8	4437213	622.362356048954	0.362356048954
8	4438290	622.381648726048	0.381648726048
8	4449564	624.020253709213	0.020253709213
8	4450167	624.220798280754	0.220798280754
8	4450275	624.240842465483	0.240842465483
8	4453383	624.362356048954	0.362356048954
8	4454460	624.381648726048	0.381648726048
8	4465734	625.020253709213	0.020253709213
8	4466337	625.220798280754	0.220798280754
8	4466445	625.240842465483	0.240842465483
8	4469553	625.362356048954	0.362356048954
8	4470630	625.381648726048	0.381648726048
8	4481904	627.020253709213	0.020253709213
8	4482507	627.220798280754	0.220798280754
8	4482615	627.240842465483	0.240842465483
8	4485723	627.362356048954	0.362356048954
8	4486800	627.381648726048	0.381648726048
8	4498058	628.020253709213	0.020253709213
8	4498712	628.240842465483	0.240842465483
8	4501820	628.362356048954	0.362356048954
8	4502897	628.381648726048	0.381648726048
8	4514172	629.220798280754	0.220798280754
8	4514244	630.020253709213	0.020253709213
8	4514847	630.220798280754	0.220798280754
8	4514955	630.240842465483	0.240842465483
8	4518063	630.362356048954	0.362356048954
8	4519140	630.381648726048	0.381648726048
8	4530398	631.020253709213	0.020253709213
8	4531052	631.240842465483	0.240842465483
8	4534160	631.362356048954	0.362356048954
8	4535237	631.381648726048	0.381648726048
8	4546512	632.220798280754	0.220798280754
8	4546568	633.020253709213	0.020253709213
8	4547222	633.240842465483	0.240842465483
8	4550330	633.362356048954	0.362356048954
8	4551407	633.381648726048	0.381648726048
8	4562997	634.220798280754	0.220798280754
8	4563042	634.240842465483	0.240842465483
8	4564830	634.381648726048	0.381648726048
8	4569818	635.020253709213	0.020253709213
8	4571888	635.362356048954	0.362356048954
8	4578835	636.020253709213	0.020253709213
8	4579489	636.240842465483	0.240842465483
8	4582597	636.362356048954	0.362356048954
8	4583674	636.381648726048	0.381648726048
8	4594949	637.220798280754	0.220798280754
8	4595506	638.220798280754	0.220798280754
8	4595590	638.240842465483	0.240842465483
8	4598071	638.362356048954	0.362356048954
8	4598926	638.381648726048	0.381648726048
8	4607892	639.020253709213	0.020253709213
8	4608546	639.240842465483	0.240842465483
8	4611654	639.362356048954	0.362356048954
8	4612731	639.381648726048	0.381648726048
8	4624006	640.220798280754	0.220798280754
8	4624055	641.020253709213	0.020253709213
8	4624508	641.240842465483	0.240842465483
8	4627145	641.381648726048	0.381648726048
8	4634474	642.020253709213	0.020253709213
8	4635077	642.220798280754	0.220798280754
8	4635185	642.240842465483	0.240842465483
8	4638293	642.362356048954	0.362356048954
8	4639370	642.381648726048	0.381648726048
8	4650644	644.020253709213	0.020253709213
8	4651247	644.220798280754	0.220798280754
8	4651355	644.240842465483	0.240842465483
8	4654463	644.362356048954	0.362356048954
8	4655540	644.381648726048	0.381648726048
8	4666799	645.020253709213	0.020253709213
8	4667453	645.240842465483	0.240842465483
8	4670561	645.362356048954	0.362356048954
8	4671638	645.381648726048	0.381648726048
8	4682913	646.220798280754	0.220798280754
8	4683481	647.240842465483	0.240842465483
8	4685962	647.362356048954	0.362356048954
8	4686817	647.381648726048	0.381648726048
8	4696284	648.220798280754	0.220798280754
8	4696368	648.240842465483	0.240842465483
8	4698849	648.362356048954	0.362356048954
8	4699704	648.381648726048	0.381648726048
8	4709171	650.220798280754	0.220798280754
8	4709255	650.240842465483	0.240842465483
8	4711736	650.362356048954	0.362356048954
8	4712591	650.381648726048	0.381648726048
8	4721889	651.220798280754	0.220798280754
8	4721934	651.240842465483	0.240842465483
8	4723722	651.381648726048	0.381648726048
8	4730011	652.362356048954	0.362356048954
8	4734776	653.220798280754	0.220798280754
8	4734821	653.240842465483	0.240842465483
8	4736609	653.381648726048	0.381648726048
8	4742142	654.240842465483	0.240842465483
8	4744623	654.362356048954	0.362356048954
8	4745478	654.381648726048	0.381648726048
8	4754461	655.220798280754	0.220798280754
8	4755018	656.220798280754	0.220798280754
8	4755102	656.240842465483	0.240842465483
8	4757583	656.362356048954	0.362356048954
8	4758438	656.381648726048	0.381648726048
8	4767760	658.220798280754	0.220798280754
8	4767820	658.240842465483	0.240842465483
8	4769455	658.362356048954	0.362356048954
8	4776254	660.220798280754	0.220798280754
8	4776314	660.240842465483	0.240842465483
8	4777949	660.362356048954	0.362356048954
8	4784893	662.220798280754	0.220798280754
8	4784977	662.240842465483	0.240842465483
8	4787458	662.362356048954	0.362356048954
8	4788313	662.381648726048	0.381648726048
8	4797780	663.220798280754	0.220798280754
8	4797864	663.240842465483	0.240842465483
8	4800345	663.362356048954	0.362356048954
8	4801200	663.381648726048	0.381648726048
8	4810667	665.220798280754	0.220798280754
8	4810751	665.240842465483	0.240842465483
8	4813232	665.362356048954	0.362356048954
8	4814087	665.381648726048	0.381648726048
8	4823240	666.220798280754	0.220798280754
8	4823261	666.240842465483	0.240842465483
8	4827114	667.362356048954	0.362356048954
8	4831879	668.220798280754	0.220798280754
8	4831924	668.240842465483	0.240842465483
8	4833712	668.381648726048	0.381648726048
8	4839089	669.220798280754	0.220798280754
8	4839149	669.240842465483	0.240842465483
8	4840784	669.362356048954	0.362356048954
8	4847434	671.220798280754	0.220798280754
8	4847455	671.240842465483	0.240842465483
8	4851095	672.220798280754	0.220798280754
8	4851239	672.240842465483	0.240842465483
8	4859803	672.460607956345	0.460607956345
8	4874788	720.021407268288	0.021407268288
8	4875397	722.021407268288	0.021407268288
8	4876219	723.021407268288	0.021407268288
8	4878366	729.021407268288	0.021407268288
8	4878763	730.021407268288	0.021407268288
8	4879492	732.021407268288	0.021407268288
8	4882471	742.021407268288	0.021407268288
8	4883139	743.021407268288	0.021407268288
8	4883839	745.021407268288	0.021407268288
8	4884268	746.021407268288	0.021407268288
8	4885798	750.021407268288	0.021407268288
8	4886827	752.021407268288	0.021407268288
8	4888088	755.021407268288	0.021407268288
8	4890839	761.021407268288	0.021407268288
8	4891381	762.021407268288	0.021407268288
8	4892371	765.021407268288	0.021407268288
8	4892655	766.021407268288	0.021407268288
8	4893126	768.021407268288	0.021407268288
8	4894068	769.021407268288	0.021407268288
8	4894781	771.021407268288	0.021407268288
8	4895623	772.021407268288	0.021407268288
8	4896723	774.021407268288	0.021407268288
8	4898097	777.021407268288	0.021407268288
8	4898668	778.021407268288	0.021407268288
8	4899755	780.021407268288	0.021407268288
8	4900052	781.021407268288	0.021407268288
8	4901062	784.021407268288	0.021407268288
8	4902033	785.021407268288	0.021407268288
8	4902991	787.021407268288	0.021407268288
8	4903704	788.021407268288	0.021407268288
8	4904675	791.021407268288	0.021407268288
8	4905633	792.021407268288	0.021407268288
8	4906333	794.021407268288	0.021407268288
8	4907033	795.021407268288	0.021407268288
8	4907733	797.021407268288	0.021407268288
8	4908404	798.021407268288	0.021407268288
8	4909120	800.021407268288	0.021407268288
8	4909533	801.021407268288	0.021407268288
8	4910118	803.021407268288	0.021407268288
8	4910789	804.021407268288	0.021407268288
8	4911357	806.021407268288	0.021407268288
8	4911899	808.021407268288	0.021407268288
8	4912196	809.021407268288	0.021407268288
8	4912751	811.021407268288	0.021407268288
8	4913293	812.021407268288	0.021407268288
8	4913590	814.021407268288	0.021407268288
8	4914145	815.021407268288	0.021407268288
8	4914687	817.021407268288	0.021407268288
8	4914997	818.021407268288	0.021407268288
8	4915797	820.021407268288	0.021407268288
8	4916081	821.021407268288	0.021407268288
8	4916378	823.021407268288	0.021407268288
8	4916934	824.021407268288	0.021407268288
8	4917476	826.021407268288	0.021407268288
8	4917773	828.021407268288	0.021407268288
8	4918315	830.021407268288	0.021407268288
8	4918599	832.021407268288	0.021407268288
8	4918883	833.021407268288	0.021407268288
8	4919164	835.021407268288	0.021407268288
8	4919590	836.021407268288	0.021407268288
8	4920132	838.021407268288	0.021407268288
8	4920416	839.021407268288	0.021407268288
8	4920713	841.021407268288	0.021407268288
8	4921255	842.021407268288	0.021407268288
8	4921552	844.021407268288	0.021407268288
8	4922107	845.021407268288	0.021407268288
8	4922666	847.021407268288	0.021407268288
8	4923160	848.021407268288	0.021407268288
8	4923512	854.021407268288	0.021407268288
8	4923904	868.021407268288	0.021407268288
8	4924256	870.021407268288	0.021407268288
8	4924479	874.021407268288	0.021407268288
9	4223758	600.018920467735	0.018920467735
9	4236680	602.018920467735	0.018920467735
9	4252837	603.018920467735	0.018920467735
9	4271667	606.018920467735	0.018920467735
9	4287837	608.018920467735	0.018920467735
9	4304007	609.018920467735	0.018920467735
9	4320164	611.018920467735	0.018920467735
9	4349139	613.018920467735	0.018920467735
9	4365309	615.018920467735	0.018920467735
9	4368687	616.018920467735	0.018920467735
9	4401027	619.018920467735	0.018920467735
9	4417197	621.018920467735	0.018920467735
9	4433367	622.018920467735	0.018920467735
9	4449537	624.018920467735	0.018920467735
9	4465707	625.018920467735	0.018920467735
9	4481877	627.018920467735	0.018920467735
9	4514109	629.018920467735	0.018920467735
9	4514217	630.018920467735	0.018920467735
9	4546449	632.018920467735	0.018920467735
9	4562634	634.018920467735	0.018920467735
9	4594886	637.018920467735	0.018920467735
9	4594981	638.018920467735	0.018920467735
9	4623943	640.018920467735	0.018920467735
9	4634447	642.018920467735	0.018920467735
9	4650617	644.018920467735	0.018920467735
9	4682850	646.018920467735	0.018920467735
9	4695759	648.018920467735	0.018920467735
9	4708646	650.018920467735	0.018920467735
9	4721526	651.018920467735	0.018920467735
9	4734413	653.018920467735	0.018920467735
9	4754398	655.018920467735	0.018920467735
9	4754493	656.018920467735	0.018920467735
9	4767373	658.018920467735	0.018920467735
9	4775867	660.018920467735	0.018920467735
9	4784368	662.018920467735	0.018920467735
9	4797255	663.018920467735	0.018920467735
9	4810142	665.018920467735	0.018920467735
9	4823015	666.018920467735	0.018920467735
9	4831516	668.018920467735	0.018920467735
9	4838702	669.018920467735	0.018920467735
9	4847209	671.018920467735	0.018920467735
9	4850561	672.018920467735	0.018920467735
9	4852801	672.339081756648	0.339081756648
9	4861048	674.018920467735	0.018920467735
9	4861471	675.018920467735	0.018920467735
9	4861894	677.018920467735	0.018920467735
9	4862324	678.018920467735	0.018920467735
9	4863011	680.018920467735	0.018920467735
9	4863434	681.018920467735	0.018920467735
9	4863857	683.018920467735	0.018920467735
9	4864276	684.018920467735	0.018920467735
9	4864703	686.018920467735	0.018920467735
9	4865126	688.018920467735	0.018920467735
9	4865556	689.018920467735	0.018920467735
9	4866243	691.018920467735	0.018920467735
9	4866666	692.018920467735	0.018920467735
9	4867235	696.018920467735	0.018920467735
9	4867925	697.018920467735	0.018920467735
9	4868623	699.018920467735	0.018920467735
9	4869306	700.018920467735	0.018920467735
9	4869733	704.018920467735	0.018920467735
9	4870156	706.018920467735	0.018920467735
9	4870582	707.018920467735	0.018920467735
9	4871141	709.018920467735	0.018920467735
9	4872377	712.018920467735	0.018920467735
9	4872796	713.018920467735	0.018920467735
9	4873226	715.018920467735	0.018920467735
9	4873774	716.018920467735	0.018920467735
9	4874201	718.018920467735	0.018920467735
9	4874767	720.018920467735	0.018920467735
9	4875361	722.018920467735	0.018920467735
9	4876198	723.018920467735	0.018920467735
9	4876781	725.018920467735	0.018920467735
9	4877349	726.018920467735	0.018920467735
10	4874773	720.019358036886	0.019358036886
10	4875373	722.019358036886	0.019358036886
10	4876204	723.019358036886	0.019358036886
10	4876793	725.019358036886	0.019358036886
10	4877355	726.019358036886	0.019358036886
10	4877796	728.019358036886	0.019358036886
10	4878348	729.019358036886	0.019358036886
10	4878925	731.019358036886	0.019358036886
10	4879483	732.019358036886	0.019358036886
10	4880186	734.019358036886	0.019358036886
10	4880734	736.019358036886	0.019358036886
10	4881030	737.019358036886	0.019358036886
10	4881585	739.019358036886	0.019358036886
10	4882146	741.019358036886	0.019358036886
10	4882453	742.019358036886	0.019358036886
10	4883546	744.019358036886	0.019358036886
10	4884250	746.019358036886	0.019358036886
10	4884947	748.019358036886	0.019358036886
10	4885260	749.019358036886	0.019358036886
10	4885973	751.019358036886	0.019358036886
10	4886809	752.019358036886	0.019358036886
10	4887750	754.019358036886	0.019358036886
10	4888070	755.019358036886	0.019358036886
10	4889004	757.019358036886	0.019358036886
10	4889182	758.019358036886	0.019358036886
10	4890530	760.019358036886	0.019358036886
10	4890830	761.019358036886	0.019358036886
10	4891659	763.019358036886	0.019358036886
10	4891955	764.019358036886	0.019358036886
10	4892646	766.019358036886	0.019358036886
10	4893108	768.019358036886	0.019358036886
10	4894059	769.019358036886	0.019358036886
10	4894772	771.019358036886	0.019358036886
10	4895605	772.019358036886	0.019358036886
10	4896714	774.019358036886	0.019358036886
10	4897668	776.019358036886	0.019358036886
10	4898650	778.019358036886	0.019358036886
10	4899339	779.019358036886	0.019358036886
10	4900043	781.019358036886	0.019358036886
10	4900604	782.019358036886	0.019358036886
10	4901044	784.019358036886	0.019358036886
10	4902015	785.019358036886	0.019358036886
10	4902973	787.019358036886	0.019358036886
10	4903686	788.019358036886	0.019358036886
10	4904657	791.019358036886	0.019358036886
10	4905615	792.019358036886	0.019358036886
10	4906315	794.019358036886	0.019358036886
10	4907015	795.019358036886	0.019358036886
10	4907715	797.019358036886	0.019358036886
10	4908395	798.019358036886	0.019358036886
10	4909102	800.019358036886	0.019358036886
10	4909524	801.019358036886	0.019358036886
10	4910100	803.019358036886	0.019358036886
10	4910780	804.019358036886	0.019358036886
10	4911348	806.019358036886	0.019358036886
10	4911890	808.019358036886	0.019358036886
10	4912187	809.019358036886	0.019358036886
10	4912742	811.019358036886	0.019358036886
10	4913284	812.019358036886	0.019358036886
10	4913581	814.019358036886	0.019358036886
10	4914136	815.019358036886	0.019358036886
10	4914678	817.019358036886	0.019358036886
10	4914988	818.019358036886	0.019358036886
10	4915788	820.019358036886	0.019358036886
10	4916072	821.019358036886	0.019358036886
10	4916369	823.019358036886	0.019358036886
10	4916925	824.019358036886	0.019358036886
10	4917467	826.019358036886	0.019358036886
10	4917764	828.019358036886	0.019358036886
10	4918306	830.019358036886	0.019358036886
10	4918590	832.019358036886	0.019358036886
10	4918874	833.019358036886	0.019358036886
10	4919581	836.019358036886	0.019358036886
10	4920123	838.019358036886	0.019358036886
10	4920407	839.019358036886	0.019358036886
10	4920704	841.019358036886	0.019358036886
10	4921246	842.019358036886	0.019358036886
10	4921543	844.019358036886	0.019358036886
10	4922098	845.019358036886	0.019358036886
10	4922972	847.280122273496	0.280122273496
10	4923385	848.280122273496	0.280122273496
10	4923824	867.280122273496	0.280122273496
10	4924129	868.280122273496	0.280122273496
11	4885991	751.021426932948	0.021426932948
11	4886833	752.021426932948	0.021426932948
11	4888094	755.021426932948	0.021426932948
11	4889200	758.021426932948	0.021426932948
11	4890000	759.021426932948	0.021426932948
11	4890845	761.021426932948	0.021426932948
11	4891964	764.021426932948	0.021426932948
11	4893132	768.021426932948	0.021426932948
11	4894787	771.021426932948	0.021426932948
11	4895629	772.021426932948	0.021426932948
11	4896729	774.021426932948	0.021426932948
11	4897677	776.021426932948	0.021426932948
11	4899348	779.021426932948	0.021426932948
11	4900613	782.021426932948	0.021426932948
11	4901068	784.021426932948	0.021426932948
11	4902039	785.021426932948	0.021426932948
11	4902997	787.021426932948	0.021426932948
11	4903710	788.021426932948	0.021426932948
11	4904681	791.021426932948	0.021426932948
11	4905639	792.021426932948	0.021426932948
11	4906339	794.021426932948	0.021426932948
11	4907039	795.021426932948	0.021426932948
11	4909810	802.021426932948	0.021426932948
11	4910124	803.021426932948	0.021426932948
11	4911363	806.021426932948	0.021426932948
11	4912202	809.021426932948	0.021426932948
11	4912757	811.021426932948	0.021426932948
11	4914151	815.021426932948	0.021426932948
11	4915003	818.021426932948	0.021426932948
11	4917779	828.021426932948	0.021426932948
11	4919170	835.021426932948	0.021426932948
11	4919596	836.021426932948	0.021426932948
11	4920719	841.021426932948	0.021426932948
11	4921558	844.021426932948	0.021426932948
11	4922113	845.021426932948	0.021426932948
11	4922672	847.021426932948	0.021426932948

