version 2
run NetLEO-0-20230428-09:15:50-2083
attr configname NetLEO
attr datetime 20230428-09:15:50
attr experiment NetLEO
attr inifile omnetpp.ini
attr iterationvars ""
attr iterationvarsf ""
attr measurement ""
attr network networks.NetLEO
attr processid 2083
attr repetition 0
attr replication #0
attr resultdir results
attr runnumber 0
attr seedset 0
param *.phase_deg 35
param *.num_of_planes 5
param *.num_of_sat_per_plane 15
param *.distance_between_sats 4000m
param *.active_sats "\"101 102 103 115 212 213 214 215 502 503 504 505\""
param *.hoptime triang(18ms,20ms,22ms)
param *.rte[*].app.ttl 22
param **.appType "\"App\""

scalar NetLEO.rte[0].app #sent 197
scalar NetLEO.rte[0].app #received 322
statistic NetLEO.rte[0].app sourceAddress:histogram
field count 322
field mean 113.67701863354
field stddev 26.020385606217
field min 102
field max 215
field sum 36604
field sqrsum 4378370
attr interpolationmode none
attr title "source address of arrived packets, histogram"
bin	-inf	0
bin	72	0
bin	74	0
bin	76	0
bin	78	0
bin	80	0
bin	82	0
bin	84	0
bin	86	0
bin	88	0
bin	90	0
bin	92	0
bin	94	0
bin	96	0
bin	98	0
bin	100	0
bin	102	181
bin	104	0
bin	106	0
bin	108	0
bin	110	0
bin	112	0
bin	114	122
bin	116	0
bin	118	0
bin	120	0
bin	122	0
bin	124	0
bin	126	0
bin	128	0
bin	130	0
bin	132	0
bin	134	0
bin	136	0
bin	138	0
bin	140	0
bin	142	0
bin	144	0
bin	146	0
bin	148	0
bin	150	0
bin	152	0
bin	154	0
bin	156	0
bin	158	0
bin	160	0
bin	162	0
bin	164	0
bin	166	0
bin	168	0
bin	170	0
bin	172	0
bin	174	0
bin	176	0
bin	178	0
bin	180	0
bin	182	0
bin	184	0
bin	186	0
bin	188	0
bin	190	0
bin	192	0
bin	194	0
bin	196	0
bin	198	0
bin	200	0
bin	202	0
bin	204	0
bin	206	0
bin	208	0
bin	210	0
bin	212	1
bin	214	18
bin	216	0
bin	218	0
bin	220	0
bin	222	0
bin	224	0
bin	226	0
bin	228	0
bin	230	0
bin	232	0
bin	234	0
bin	236	0
bin	238	0
bin	240	0
bin	242	0
bin	244	0
statistic NetLEO.rte[0].app hopCount:histogram
field count 322
field mean 3.1459627329193
field stddev 4.4498380213276
field min 1
field max 16
field sum 1013
field sqrsum 9543
attr interpolationmode none
attr title "hop count of arrived packets, histogram"
bin	-inf	0
bin	0	0
bin	1	228
bin	2	36
bin	3	0
bin	4	0
bin	5	0
bin	6	0
bin	7	0
bin	8	11
bin	9	7
bin	10	0
bin	11	0
bin	12	0
bin	13	0
bin	14	39
bin	15	0
bin	16	1
bin	17	0
scalar NetLEO.rte[0].app hopCount:mean 3.1459627329193
attr interpolationmode none
attr title "hop count of arrived packets, mean"
scalar NetLEO.rte[0].app hopCount:max 16
attr interpolationmode none
attr title "hop count of arrived packets, max"
statistic NetLEO.rte[0].app endToEndDelay:histogram
field count 322
field mean 0.063103583245133
field stddev 0.088848310183285
field min 0.020044184729
field max 0.320161288913
field sum 20.319353804933
field sqrsum 3.8162051677154
attr interpolationmode none
attr title "end-to-end delay of arrived packets, histogram"
attr unit s
bin	-inf	0
bin	0	0
bin	0.005	0
bin	0.01	0
bin	0.015	0
bin	0.02	228
bin	0.025	0
bin	0.03	0
bin	0.035	0
bin	0.04	36
bin	0.045	0
bin	0.05	0
bin	0.055	0
bin	0.06	0
bin	0.065	0
bin	0.07	0
bin	0.075	0
bin	0.08	0
bin	0.085	0
bin	0.09	0
bin	0.095	0
bin	0.1	0
bin	0.105	0
bin	0.11	0
bin	0.115	0
bin	0.12	0
bin	0.125	0
bin	0.13	0
bin	0.135	0
bin	0.14	0
bin	0.145	0
bin	0.15	0
bin	0.155	0
bin	0.16	11
bin	0.165	0
bin	0.17	0
bin	0.175	0
bin	0.18	7
bin	0.185	0
bin	0.19	0
bin	0.195	0
bin	0.2	0
bin	0.205	0
bin	0.21	0
bin	0.215	0
bin	0.22	0
bin	0.225	0
bin	0.23	0
bin	0.235	0
bin	0.24	0
bin	0.245	0
bin	0.25	0
bin	0.255	0
bin	0.26	0
bin	0.265	0
bin	0.27	0
bin	0.275	39
bin	0.28	0
bin	0.285	0
bin	0.29	0
bin	0.295	0
bin	0.3	0
bin	0.305	0
bin	0.31	0
bin	0.315	0
bin	0.32	1
bin	0.325	0
scalar NetLEO.rte[0].app endToEndDelay:mean 0.063103583245133
attr interpolationmode none
attr title "end-to-end delay of arrived packets, mean"
attr unit s
scalar NetLEO.rte[0].app endToEndDelay:max 0.320161288913
attr interpolationmode none
attr title "end-to-end delay of arrived packets, max"
attr unit s
statistic NetLEO.rte[0].routing outputIf:histogram
field count 11803
field mean -0.37448106413624
field stddev 0.95336051053636
field min -1
field max 2
field sum -4420
field sqrsum 12382
attr interpolationmode none
attr title "output interface for each routed packet, histogram"
bin	-inf	0
bin	-2	0
bin	-1	7074
bin	0	3402
bin	1	0
bin	2	1327
bin	3	0
scalar NetLEO.rte[0].routing drop:count 0
attr interpolationmode none
attr title "dropped packet byte length, count"
attr unit bytes
scalar NetLEO.rte[0].routing drop:sum 0
attr interpolationmode none
attr title "dropped packet byte length, sum"
attr unit bytes
scalar NetLEO.rte[0].queue[0] rxBytes:count 5029
attr interpolationmode none
attr title "received packet byte length, count"
attr unit bytes
scalar NetLEO.rte[0].queue[0] rxBytes:sum 80148976
attr interpolationmode none
attr title "received packet byte length, sum"
attr unit bytes
statistic NetLEO.rte[0].queue[0] rxBytes:histogram
field count 5029
field mean 15937.358520581
field stddev 19634.544992613
field min 152
field max 92700
field sum 80148976
field sqrsum 3215734180902
attr interpolationmode none
attr title "received packet byte length, histogram"
attr unit bytes
bin	-inf	0
bin	0	2025
bin	2000	2
bin	4000	2
bin	6000	514
bin	8000	121
bin	10000	394
bin	12000	8
bin	14000	152
bin	16000	46
bin	18000	2
bin	20000	107
bin	22000	734
bin	24000	13
bin	26000	60
bin	28000	120
bin	30000	0
bin	32000	0
bin	34000	0
bin	36000	0
bin	38000	0
bin	40000	1
bin	42000	12
bin	44000	347
bin	46000	58
bin	48000	1
bin	50000	0
bin	52000	60
bin	54000	0
bin	56000	0
bin	58000	0
bin	60000	0
bin	62000	0
bin	64000	2
bin	66000	62
bin	68000	113
bin	70000	3
bin	72000	0
bin	74000	0
bin	76000	0
bin	78000	0
bin	80000	0
bin	82000	0
bin	84000	0
bin	86000	0
bin	88000	0
bin	90000	2
bin	92000	68
bin	94000	0
scalar NetLEO.rte[0].queue[0] txBytes:count 3402
attr interpolationmode none
attr title "transmitting packet byte length, count"
attr unit bytes
scalar NetLEO.rte[0].queue[0] txBytes:sum 43137014
attr interpolationmode none
attr title "transmitting packet byte length, sum"
attr unit bytes
statistic NetLEO.rte[0].queue[0] txBytes:histogram
field count 3402
field mean 12679.898295121
field stddev 18914.434304984
field min 152
field max 92700
field sum 43137014
field sqrsum 1763700511364
attr interpolationmode none
attr title "transmitting packet byte length, histogram"
attr unit bytes
bin	-inf	0
bin	0	1772
bin	2000	6
bin	4000	4
bin	6000	354
bin	8000	66
bin	10000	160
bin	12000	0
bin	14000	96
bin	16000	16
bin	18000	0
bin	20000	64
bin	22000	400
bin	24000	0
bin	26000	32
bin	28000	64
bin	30000	0
bin	32000	0
bin	34000	0
bin	36000	0
bin	38000	0
bin	40000	0
bin	42000	0
bin	44000	192
bin	46000	16
bin	48000	0
bin	50000	0
bin	52000	32
bin	54000	0
bin	56000	0
bin	58000	0
bin	60000	0
bin	62000	0
bin	64000	0
bin	66000	32
bin	68000	32
bin	70000	0
bin	72000	0
bin	74000	0
bin	76000	0
bin	78000	0
bin	80000	0
bin	82000	0
bin	84000	0
bin	86000	0
bin	88000	0
bin	90000	0
bin	92000	64
bin	94000	0
scalar NetLEO.rte[0].queue[0] busy:timeavg 0
attr interpolationmode sample-hold
attr title "server busy state, timeavg"
scalar NetLEO.rte[0].queue[0] qlen:timeavg 0
attr interpolationmode sample-hold
attr title "queue length, timeavg"
scalar NetLEO.rte[0].queue[0] qlen:max 63
attr interpolationmode sample-hold
attr title "queue length, max"
scalar NetLEO.rte[0].queue[0] drop:count 0
attr interpolationmode none
attr title "dropped packet byte length, count"
attr unit bytes
scalar NetLEO.rte[0].queue[0] drop:sum 0
attr interpolationmode none
attr title "dropped packet byte length, sum"
attr unit bytes
scalar NetLEO.rte[0].queue[1] rxBytes:count 0
attr interpolationmode none
attr title "received packet byte length, count"
attr unit bytes
scalar NetLEO.rte[0].queue[1] rxBytes:sum 0
attr interpolationmode none
attr title "received packet byte length, sum"
attr unit bytes
statistic NetLEO.rte[0].queue[1] rxBytes:histogram
field count 0
field mean -nan
field stddev -nan
field min -nan
field max -nan
field sum 0
field sqrsum 0
attr interpolationmode none
attr title "received packet byte length, histogram"
attr unit bytes
bin	-inf	0
bin	0	0
bin	1	0
scalar NetLEO.rte[0].queue[1] txBytes:count 0
attr interpolationmode none
attr title "transmitting packet byte length, count"
attr unit bytes
scalar NetLEO.rte[0].queue[1] txBytes:sum 0
attr interpolationmode none
attr title "transmitting packet byte length, sum"
attr unit bytes
statistic NetLEO.rte[0].queue[1] txBytes:histogram
field count 0
field mean -nan
field stddev -nan
field min -nan
field max -nan
field sum 0
field sqrsum 0
attr interpolationmode none
attr title "transmitting packet byte length, histogram"
attr unit bytes
bin	-inf	0
bin	0	0
bin	1	0
scalar NetLEO.rte[0].queue[1] busy:timeavg 0
attr interpolationmode sample-hold
attr title "server busy state, timeavg"
scalar NetLEO.rte[0].queue[1] qlen:timeavg 0
attr interpolationmode sample-hold
attr title "queue length, timeavg"
scalar NetLEO.rte[0].queue[1] qlen:max 0
attr interpolationmode sample-hold
attr title "queue length, max"
scalar NetLEO.rte[0].queue[1] drop:count 0
attr interpolationmode none
attr title "dropped packet byte length, count"
attr unit bytes
scalar NetLEO.rte[0].queue[1] drop:sum 0
attr interpolationmode none
attr title "dropped packet byte length, sum"
attr unit bytes
scalar NetLEO.rte[0].queue[2] rxBytes:count 2045
attr interpolationmode none
attr title "received packet byte length, count"
attr unit bytes
scalar NetLEO.rte[0].queue[2] rxBytes:sum 26030120
attr interpolationmode none
attr title "received packet byte length, sum"
attr unit bytes
statistic NetLEO.rte[0].queue[2] rxBytes:histogram
field count 2045
field mean 12728.665036675
field stddev 18794.219590799
field min 152
field max 92700
field sum 26030120
field sqrsum 1053315856760
attr interpolationmode none
attr title "received packet byte length, histogram"
attr unit bytes
bin	-inf	0
bin	0	1076
bin	2000	1
bin	4000	0
bin	6000	176
bin	8000	64
bin	10000	112
bin	12000	0
bin	14000	48
bin	16000	8
bin	18000	0
bin	20000	32
bin	22000	216
bin	24000	0
bin	26000	32
bin	28000	64
bin	30000	0
bin	32000	0
bin	34000	0
bin	36000	0
bin	38000	0
bin	40000	0
bin	42000	0
bin	44000	96
bin	46000	8
bin	48000	0
bin	50000	0
bin	52000	32
bin	54000	0
bin	56000	0
bin	58000	0
bin	60000	0
bin	62000	0
bin	64000	0
bin	66000	32
bin	68000	16
bin	70000	0
bin	72000	0
bin	74000	0
bin	76000	0
bin	78000	0
bin	80000	0
bin	82000	0
bin	84000	0
bin	86000	0
bin	88000	0
bin	90000	0
bin	92000	32
bin	94000	0
scalar NetLEO.rte[0].queue[2] txBytes:count 1327
attr interpolationmode none
attr title "transmitting packet byte length, count"
attr unit bytes
scalar NetLEO.rte[0].queue[2] txBytes:sum 20727158
attr interpolationmode none
attr title "transmitting packet byte length, sum"
attr unit bytes
statistic NetLEO.rte[0].queue[2] txBytes:histogram
field count 1327
field mean 15619.561416729
field stddev 19670.497340906
field min 152
field max 92700
field sum 20727158
field sqrsum 836816262812
attr interpolationmode none
attr title "transmitting packet byte length, histogram"
attr unit bytes
bin	-inf	0
bin	0	601
bin	2000	0
bin	4000	2
bin	6000	86
bin	8000	1
bin	10000	94
bin	12000	8
bin	14000	30
bin	16000	16
bin	18000	2
bin	20000	49
bin	22000	226
bin	24000	5
bin	26000	0
bin	28000	0
bin	30000	0
bin	32000	0
bin	34000	0
bin	36000	0
bin	38000	0
bin	40000	1
bin	42000	9
bin	44000	118
bin	46000	20
bin	48000	0
bin	50000	0
bin	52000	0
bin	54000	0
bin	56000	0
bin	58000	0
bin	60000	0
bin	62000	0
bin	64000	0
bin	66000	0
bin	68000	40
bin	70000	0
bin	72000	0
bin	74000	0
bin	76000	0
bin	78000	0
bin	80000	0
bin	82000	0
bin	84000	0
bin	86000	0
bin	88000	0
bin	90000	0
bin	92000	19
bin	94000	0
scalar NetLEO.rte[0].queue[2] busy:timeavg 0
attr interpolationmode sample-hold
attr title "server busy state, timeavg"
scalar NetLEO.rte[0].queue[2] qlen:timeavg 0
attr interpolationmode sample-hold
attr title "queue length, timeavg"
scalar NetLEO.rte[0].queue[2] qlen:max 15
attr interpolationmode sample-hold
attr title "queue length, max"
scalar NetLEO.rte[0].queue[2] drop:count 0
attr interpolationmode none
attr title "dropped packet byte length, count"
attr unit bytes
scalar NetLEO.rte[0].queue[2] drop:sum 0
attr interpolationmode none
attr title "dropped packet byte length, sum"
attr unit bytes
scalar NetLEO.rte[0].queue[3] rxBytes:count 0
attr interpolationmode none
attr title "received packet byte length, count"
attr unit bytes
scalar NetLEO.rte[0].queue[3] rxBytes:sum 0
attr interpolationmode none
attr title "received packet byte length, sum"
attr unit bytes
statistic NetLEO.rte[0].queue[3] rxBytes:histogram
field count 0
field mean -nan
field stddev -nan
field min -nan
field max -nan
field sum 0
field sqrsum 0
attr interpolationmode none
attr title "received packet byte length, histogram"
attr unit bytes
bin	-inf	0
bin	0	0
bin	1	0
scalar NetLEO.rte[0].queue[3] txBytes:count 0
attr interpolationmode none
attr title "transmitting packet byte length, count"
attr unit bytes
scalar NetLEO.rte[0].queue[3] txBytes:sum 0
attr interpolationmode none
attr title "transmitting packet byte length, sum"
attr unit bytes
statistic NetLEO.rte[0].queue[3] txBytes:histogram
field count 0
field mean -nan
field stddev -nan
field min -nan
field max -nan
field sum 0
field sqrsum 0
attr interpolationmode none
attr title "transmitting packet byte length, histogram"
attr unit bytes
bin	-inf	0
bin	0	0
bin	1	0
scalar NetLEO.rte[0].queue[3] busy:timeavg 0
attr interpolationmode sample-hold
attr title "server busy state, timeavg"
scalar NetLEO.rte[0].queue[3] qlen:timeavg 0
attr interpolationmode sample-hold
attr title "queue length, timeavg"
scalar NetLEO.rte[0].queue[3] qlen:max 0
attr interpolationmode sample-hold
attr title "queue length, max"
scalar NetLEO.rte[0].queue[3] drop:count 0
attr interpolationmode none
attr title "dropped packet byte length, count"
attr unit bytes
scalar NetLEO.rte[0].queue[3] drop:sum 0
attr interpolationmode none
attr title "dropped packet byte length, sum"
attr unit bytes
scalar NetLEO.rte[1].app #sent 186
scalar NetLEO.rte[1].app #received 540
statistic NetLEO.rte[1].app sourceAddress:histogram
field count 540
field mean 168.86666666667
field stddev 127.36876472018
field min 101
field max 505
field sum 91188
field sqrsum 24142704
attr interpolationmode none
attr title "source address of arrived packets, histogram"
bin	-inf	0
bin	0	0
bin	10	0
bin	20	0
bin	30	0
bin	40	0
bin	50	0
bin	60	0
bin	70	0
bin	80	0
bin	90	0
bin	100	270
bin	110	122
bin	120	0
bin	130	0
bin	140	0
bin	150	0
bin	160	0
bin	170	0
bin	180	0
bin	190	0
bin	200	0
bin	210	86
bin	220	0
bin	230	0
bin	240	0
bin	250	0
bin	260	0
bin	270	0
bin	280	0
bin	290	0
bin	300	0
bin	310	0
bin	320	0
bin	330	0
bin	340	0
bin	350	0
bin	360	0
bin	370	0
bin	380	0
bin	390	0
bin	400	0
bin	410	0
bin	420	0
bin	430	0
bin	440	0
bin	450	0
bin	460	0
bin	470	0
bin	480	0
bin	490	0
bin	500	62
bin	510	0
bin	520	0
bin	530	0
bin	540	0
bin	550	0
bin	560	0
bin	570	0
bin	580	0
bin	590	0
bin	600	0
bin	610	0
statistic NetLEO.rte[1].app hopCount:histogram
field count 540
field mean 4.4814814814815
field stddev 6.1966558122657
field min 1
field max 21
field sum 2420
field sqrsum 31542
attr interpolationmode none
attr title "hop count of arrived packets, histogram"
bin	-inf	0
bin	0	0
bin	1	270
bin	2	122
bin	3	0
bin	4	0
bin	5	0
bin	6	0
bin	7	58
bin	8	27
bin	9	0
bin	10	0
bin	11	0
bin	12	0
bin	13	0
bin	14	0
bin	15	1
bin	16	0
bin	17	0
bin	18	0
bin	19	0
bin	20	33
bin	21	29
bin	22	0
bin	23	0
bin	24	0
bin	25	0
bin	26	0
scalar NetLEO.rte[1].app hopCount:mean 4.4814814814815
attr interpolationmode none
attr title "hop count of arrived packets, mean"
scalar NetLEO.rte[1].app hopCount:max 21
attr interpolationmode none
attr title "hop count of arrived packets, max"
statistic NetLEO.rte[1].app endToEndDelay:histogram
field count 540
field mean 0.089685762528038
field stddev 0.12343048184118
field min 0.020100133694
field max 0.417796088132
field sum 48.430311765141
field sqrsum 12.555219633955
attr interpolationmode none
attr title "end-to-end delay of arrived packets, histogram"
attr unit s
bin	-inf	0
bin	0	0
bin	0.01	0
bin	0.02	270
bin	0.03	0
bin	0.04	122
bin	0.05	0
bin	0.06	0
bin	0.07	0
bin	0.08	0
bin	0.09	0
bin	0.1	0
bin	0.11	0
bin	0.12	0
bin	0.13	58
bin	0.14	0
bin	0.15	0
bin	0.16	27
bin	0.17	0
bin	0.18	0
bin	0.19	0
bin	0.2	0
bin	0.21	0
bin	0.22	0
bin	0.23	0
bin	0.24	0
bin	0.25	0
bin	0.26	0
bin	0.27	0
bin	0.28	0
bin	0.29	1
bin	0.3	0
bin	0.31	0
bin	0.32	0
bin	0.33	0
bin	0.34	0
bin	0.35	0
bin	0.36	0
bin	0.37	0
bin	0.38	0
bin	0.39	33
bin	0.4	0
bin	0.41	29
bin	0.42	0
bin	0.43	0
bin	0.44	0
bin	0.45	0
bin	0.46	0
bin	0.47	0
bin	0.48	0
bin	0.49	0
bin	0.5	0
bin	0.51	0
bin	0.52	0
scalar NetLEO.rte[1].app endToEndDelay:mean 0.089685762528038
attr interpolationmode none
attr title "end-to-end delay of arrived packets, mean"
attr unit s
scalar NetLEO.rte[1].app endToEndDelay:max 0.417796088132
attr interpolationmode none
attr title "end-to-end delay of arrived packets, max"
attr unit s
statistic NetLEO.rte[1].routing outputIf:histogram
field count 16901
field mean -0.27785338145672
field stddev 0.79074530496127
field min -1
field max 1
field sum -4696
field sqrsum 11872
attr interpolationmode none
attr title "output interface for each routed packet, histogram"
bin	-inf	0
bin	-2	0
bin	-1	8284
bin	0	5029
bin	1	3588
bin	2	0
scalar NetLEO.rte[1].routing drop:count 0
attr interpolationmode none
attr title "dropped packet byte length, count"
attr unit bytes
scalar NetLEO.rte[1].routing drop:sum 0
attr interpolationmode none
attr title "dropped packet byte length, sum"
attr unit bytes
scalar NetLEO.rte[1].queue[0] rxBytes:count 3402
attr interpolationmode none
attr title "received packet byte length, count"
attr unit bytes
scalar NetLEO.rte[1].queue[0] rxBytes:sum 43137014
attr interpolationmode none
attr title "received packet byte length, sum"
attr unit bytes
statistic NetLEO.rte[1].queue[0] rxBytes:histogram
field count 3402
field mean 12679.898295121
field stddev 18914.434304984
field min 152
field max 92700
field sum 43137014
field sqrsum 1763700511364
attr interpolationmode none
attr title "received packet byte length, histogram"
attr unit bytes
bin	-inf	0
bin	0	1772
bin	2000	6
bin	4000	4
bin	6000	354
bin	8000	66
bin	10000	160
bin	12000	0
bin	14000	96
bin	16000	16
bin	18000	0
bin	20000	64
bin	22000	400
bin	24000	0
bin	26000	32
bin	28000	64
bin	30000	0
bin	32000	0
bin	34000	0
bin	36000	0
bin	38000	0
bin	40000	0
bin	42000	0
bin	44000	192
bin	46000	16
bin	48000	0
bin	50000	0
bin	52000	32
bin	54000	0
bin	56000	0
bin	58000	0
bin	60000	0
bin	62000	0
bin	64000	0
bin	66000	32
bin	68000	32
bin	70000	0
bin	72000	0
bin	74000	0
bin	76000	0
bin	78000	0
bin	80000	0
bin	82000	0
bin	84000	0
bin	86000	0
bin	88000	0
bin	90000	0
bin	92000	64
bin	94000	0
scalar NetLEO.rte[1].queue[0] txBytes:count 5029
attr interpolationmode none
attr title "transmitting packet byte length, count"
attr unit bytes
scalar NetLEO.rte[1].queue[0] txBytes:sum 80148976
attr interpolationmode none
attr title "transmitting packet byte length, sum"
attr unit bytes
statistic NetLEO.rte[1].queue[0] txBytes:histogram
field count 5029
field mean 15937.358520581
field stddev 19634.544992613
field min 152
field max 92700
field sum 80148976
field sqrsum 3215734180902
attr interpolationmode none
attr title "transmitting packet byte length, histogram"
attr unit bytes
bin	-inf	0
bin	0	2025
bin	2000	2
bin	4000	2
bin	6000	514
bin	8000	121
bin	10000	394
bin	12000	8
bin	14000	152
bin	16000	46
bin	18000	2
bin	20000	107
bin	22000	734
bin	24000	13
bin	26000	60
bin	28000	120
bin	30000	0
bin	32000	0
bin	34000	0
bin	36000	0
bin	38000	0
bin	40000	1
bin	42000	12
bin	44000	347
bin	46000	58
bin	48000	1
bin	50000	0
bin	52000	60
bin	54000	0
bin	56000	0
bin	58000	0
bin	60000	0
bin	62000	0
bin	64000	2
bin	66000	62
bin	68000	113
bin	70000	3
bin	72000	0
bin	74000	0
bin	76000	0
bin	78000	0
bin	80000	0
bin	82000	0
bin	84000	0
bin	86000	0
bin	88000	0
bin	90000	2
bin	92000	68
bin	94000	0
scalar NetLEO.rte[1].queue[0] busy:timeavg 0
attr interpolationmode sample-hold
attr title "server busy state, timeavg"
scalar NetLEO.rte[1].queue[0] qlen:timeavg 0
attr interpolationmode sample-hold
attr title "queue length, timeavg"
scalar NetLEO.rte[1].queue[0] qlen:max 31
attr interpolationmode sample-hold
attr title "queue length, max"
scalar NetLEO.rte[1].queue[0] drop:count 0
attr interpolationmode none
attr title "dropped packet byte length, count"
attr unit bytes
scalar NetLEO.rte[1].queue[0] drop:sum 0
attr interpolationmode none
attr title "dropped packet byte length, sum"
attr unit bytes
scalar NetLEO.rte[1].queue[1] rxBytes:count 4882
attr interpolationmode none
attr title "received packet byte length, count"
attr unit bytes
scalar NetLEO.rte[1].queue[1] rxBytes:sum 77735356
attr interpolationmode none
attr title "received packet byte length, sum"
attr unit bytes
statistic NetLEO.rte[1].queue[1] rxBytes:histogram
field count 4882
field mean 15922.850471118
field stddev 19561.162595423
field min 152
field max 92700
field sum 77735356
field sqrsum 3105429809562
attr interpolationmode none
attr title "received packet byte length, histogram"
attr unit bytes
bin	-inf	0
bin	0	1944
bin	2000	0
bin	4000	2
bin	6000	514
bin	8000	121
bin	10000	394
bin	12000	8
bin	14000	152
bin	16000	46
bin	18000	2
bin	20000	97
bin	22000	710
bin	24000	8
bin	26000	60
bin	28000	120
bin	30000	0
bin	32000	0
bin	34000	0
bin	36000	0
bin	38000	0
bin	40000	1
bin	42000	10
bin	44000	339
bin	46000	53
bin	48000	1
bin	50000	0
bin	52000	60
bin	54000	0
bin	56000	0
bin	58000	0
bin	60000	0
bin	62000	0
bin	64000	1
bin	66000	61
bin	68000	110
bin	70000	1
bin	72000	0
bin	74000	0
bin	76000	0
bin	78000	0
bin	80000	0
bin	82000	0
bin	84000	0
bin	86000	0
bin	88000	0
bin	90000	1
bin	92000	66
bin	94000	0
scalar NetLEO.rte[1].queue[1] txBytes:count 3588
attr interpolationmode none
attr title "transmitting packet byte length, count"
attr unit bytes
scalar NetLEO.rte[1].queue[1] txBytes:sum 45592586
attr interpolationmode none
attr title "transmitting packet byte length, sum"
attr unit bytes
statistic NetLEO.rte[1].queue[1] txBytes:histogram
field count 3588
field mean 12706.963768116
field stddev 18998.593776695
field min 152
field max 92700
field sum 45592586
field sqrsum 1874058668816
attr interpolationmode none
attr title "transmitting packet byte length, histogram"
attr unit bytes
bin	-inf	0
bin	0	1892
bin	2000	8
bin	4000	4
bin	6000	354
bin	8000	66
bin	10000	160
bin	12000	0
bin	14000	96
bin	16000	16
bin	18000	0
bin	20000	74
bin	22000	424
bin	24000	5
bin	26000	32
bin	28000	64
bin	30000	0
bin	32000	0
bin	34000	0
bin	36000	0
bin	38000	0
bin	40000	0
bin	42000	2
bin	44000	200
bin	46000	21
bin	48000	0
bin	50000	0
bin	52000	32
bin	54000	0
bin	56000	0
bin	58000	0
bin	60000	0
bin	62000	0
bin	64000	1
bin	66000	33
bin	68000	35
bin	70000	2
bin	72000	0
bin	74000	0
bin	76000	0
bin	78000	0
bin	80000	0
bin	82000	0
bin	84000	0
bin	86000	0
bin	88000	0
bin	90000	1
bin	92000	66
bin	94000	0
scalar NetLEO.rte[1].queue[1] busy:timeavg 0
attr interpolationmode sample-hold
attr title "server busy state, timeavg"
scalar NetLEO.rte[1].queue[1] qlen:timeavg 0
attr interpolationmode sample-hold
attr title "queue length, timeavg"
scalar NetLEO.rte[1].queue[1] qlen:max 63
attr interpolationmode sample-hold
attr title "queue length, max"
scalar NetLEO.rte[1].queue[1] drop:count 0
attr interpolationmode none
attr title "dropped packet byte length, count"
attr unit bytes
scalar NetLEO.rte[1].queue[1] drop:sum 0
attr interpolationmode none
attr title "dropped packet byte length, sum"
attr unit bytes
scalar NetLEO.rte[1].queue[2] rxBytes:count 0
attr interpolationmode none
attr title "received packet byte length, count"
attr unit bytes
scalar NetLEO.rte[1].queue[2] rxBytes:sum 0
attr interpolationmode none
attr title "received packet byte length, sum"
attr unit bytes
statistic NetLEO.rte[1].queue[2] rxBytes:histogram
field count 0
field mean -nan
field stddev -nan
field min -nan
field max -nan
field sum 0
field sqrsum 0
attr interpolationmode none
attr title "received packet byte length, histogram"
attr unit bytes
bin	-inf	0
bin	0	0
bin	1	0
scalar NetLEO.rte[1].queue[2] txBytes:count 0
attr interpolationmode none
attr title "transmitting packet byte length, count"
attr unit bytes
scalar NetLEO.rte[1].queue[2] txBytes:sum 0
attr interpolationmode none
attr title "transmitting packet byte length, sum"
attr unit bytes
statistic NetLEO.rte[1].queue[2] txBytes:histogram
field count 0
field mean -nan
field stddev -nan
field min -nan
field max -nan
field sum 0
field sqrsum 0
attr interpolationmode none
attr title "transmitting packet byte length, histogram"
attr unit bytes
bin	-inf	0
bin	0	0
bin	1	0
scalar NetLEO.rte[1].queue[2] busy:timeavg 0
attr interpolationmode sample-hold
attr title "server busy state, timeavg"
scalar NetLEO.rte[1].queue[2] qlen:timeavg 0
attr interpolationmode sample-hold
attr title "queue length, timeavg"
scalar NetLEO.rte[1].queue[2] qlen:max 0
attr interpolationmode sample-hold
attr title "queue length, max"
scalar NetLEO.rte[1].queue[2] drop:count 0
attr interpolationmode none
attr title "dropped packet byte length, count"
attr unit bytes
scalar NetLEO.rte[1].queue[2] drop:sum 0
attr interpolationmode none
attr title "dropped packet byte length, sum"
attr unit bytes
scalar NetLEO.rte[1].queue[3] rxBytes:count 0
attr interpolationmode none
attr title "received packet byte length, count"
attr unit bytes
scalar NetLEO.rte[1].queue[3] rxBytes:sum 0
attr interpolationmode none
attr title "received packet byte length, sum"
attr unit bytes
statistic NetLEO.rte[1].queue[3] rxBytes:histogram
field count 0
field mean -nan
field stddev -nan
field min -nan
field max -nan
field sum 0
field sqrsum 0
attr interpolationmode none
attr title "received packet byte length, histogram"
attr unit bytes
bin	-inf	0
bin	0	0
bin	1	0
scalar NetLEO.rte[1].queue[3] txBytes:count 0
attr interpolationmode none
attr title "transmitting packet byte length, count"
attr unit bytes
scalar NetLEO.rte[1].queue[3] txBytes:sum 0
attr interpolationmode none
attr title "transmitting packet byte length, sum"
attr unit bytes
statistic NetLEO.rte[1].queue[3] txBytes:histogram
field count 0
field mean -nan
field stddev -nan
field min -nan
field max -nan
field sum 0
field sqrsum 0
attr interpolationmode none
attr title "transmitting packet byte length, histogram"
attr unit bytes
bin	-inf	0
bin	0	0
bin	1	0
scalar NetLEO.rte[1].queue[3] busy:timeavg 0
attr interpolationmode sample-hold
attr title "server busy state, timeavg"
scalar NetLEO.rte[1].queue[3] qlen:timeavg 0
attr interpolationmode sample-hold
attr title "queue length, timeavg"
scalar NetLEO.rte[1].queue[3] qlen:max 0
attr interpolationmode sample-hold
attr title "queue length, max"
scalar NetLEO.rte[1].queue[3] drop:count 0
attr interpolationmode none
attr title "dropped packet byte length, count"
attr unit bytes
scalar NetLEO.rte[1].queue[3] drop:sum 0
attr interpolationmode none
attr title "dropped packet byte length, sum"
attr unit bytes
scalar NetLEO.rte[2].app #sent 73
scalar NetLEO.rte[2].app #received 653
statistic NetLEO.rte[2].app sourceAddress:histogram
field count 653
field mean 157.18376722818
field stddev 118.59279680438
field min 101
field max 505
field sum 102641
field sqrsum 25303391
attr interpolationmode none
attr title "source address of arrived packets, histogram"
bin	-inf	0
bin	0	0
bin	10	0
bin	20	0
bin	30	0
bin	40	0
bin	50	0
bin	60	0
bin	70	0
bin	80	0
bin	90	0
bin	100	383
bin	110	122
bin	120	0
bin	130	0
bin	140	0
bin	150	0
bin	160	0
bin	170	0
bin	180	0
bin	190	0
bin	200	0
bin	210	86
bin	220	0
bin	230	0
bin	240	0
bin	250	0
bin	260	0
bin	270	0
bin	280	0
bin	290	0
bin	300	0
bin	310	0
bin	320	0
bin	330	0
bin	340	0
bin	350	0
bin	360	0
bin	370	0
bin	380	0
bin	390	0
bin	400	0
bin	410	0
bin	420	0
bin	430	0
bin	440	0
bin	450	0
bin	460	0
bin	470	0
bin	480	0
bin	490	0
bin	500	62
bin	510	0
bin	520	0
bin	530	0
bin	540	0
bin	550	0
bin	560	0
bin	570	0
bin	580	0
bin	590	0
bin	600	0
bin	610	0
statistic NetLEO.rte[2].app hopCount:histogram
field count 653
field mean 4.1408882082695
field stddev 5.2535466087789
field min 1
field max 20
field sum 2704
field sqrsum 29192
attr interpolationmode none
attr title "hop count of arrived packets, histogram"
bin	-inf	0
bin	0	0
bin	1	186
bin	2	197
bin	3	122
bin	4	0
bin	5	0
bin	6	58
bin	7	27
bin	8	0
bin	9	0
bin	10	0
bin	11	0
bin	12	0
bin	13	0
bin	14	1
bin	15	0
bin	16	0
bin	17	0
bin	18	0
bin	19	33
bin	20	29
bin	21	0
bin	22	0
bin	23	0
bin	24	0
bin	25	0
scalar NetLEO.rte[2].app hopCount:mean 4.1408882082695
attr interpolationmode none
attr title "hop count of arrived packets, mean"
scalar NetLEO.rte[2].app hopCount:max 20
attr interpolationmode none
attr title "hop count of arrived packets, max"
statistic NetLEO.rte[2].app endToEndDelay:histogram
field count 653
field mean 0.082716172038021
field stddev 0.10429418241022
field min 0.020217335411
field max 0.396862125205
field sum 54.013660340827
field sqrsum 11.559787489125
attr interpolationmode none
attr title "end-to-end delay of arrived packets, histogram"
attr unit s
bin	-inf	0
bin	0	0
bin	0.01	0
bin	0.02	186
bin	0.03	0
bin	0.04	197
bin	0.05	0
bin	0.06	122
bin	0.07	0
bin	0.08	0
bin	0.09	0
bin	0.1	0
bin	0.11	58
bin	0.12	0
bin	0.13	27
bin	0.14	0
bin	0.15	0
bin	0.16	0
bin	0.17	0
bin	0.18	0
bin	0.19	0
bin	0.2	0
bin	0.21	0
bin	0.22	0
bin	0.23	0
bin	0.24	0
bin	0.25	0
bin	0.26	0
bin	0.27	1
bin	0.28	0
bin	0.29	0
bin	0.3	0
bin	0.31	0
bin	0.32	0
bin	0.33	0
bin	0.34	0
bin	0.35	0
bin	0.36	0
bin	0.37	33
bin	0.38	0
bin	0.39	29
bin	0.4	0
bin	0.41	0
bin	0.42	0
bin	0.43	0
bin	0.44	0
bin	0.45	0
bin	0.46	0
bin	0.47	0
bin	0.48	0
bin	0.49	0
bin	0.5	0
scalar NetLEO.rte[2].app endToEndDelay:mean 0.082716172038021
attr interpolationmode none
attr title "end-to-end delay of arrived packets, mean"
attr unit s
scalar NetLEO.rte[2].app endToEndDelay:max 0.396862125205
attr interpolationmode none
attr title "end-to-end delay of arrived packets, max"
attr unit s
statistic NetLEO.rte[2].routing outputIf:histogram
field count 16940
field mean -0.27957497048406
field stddev 0.79604121673258
field min -1
field max 1
field sum -4736
field sqrsum 12058
attr interpolationmode none
attr title "output interface for each routed packet, histogram"
bin	-inf	0
bin	-2	0
bin	-1	8397
bin	0	4882
bin	1	3661
bin	2	0
scalar NetLEO.rte[2].routing drop:count 0
attr interpolationmode none
attr title "dropped packet byte length, count"
attr unit bytes
scalar NetLEO.rte[2].routing drop:sum 0
attr interpolationmode none
attr title "dropped packet byte length, sum"
attr unit bytes
scalar NetLEO.rte[2].queue[0] rxBytes:count 3588
attr interpolationmode none
attr title "received packet byte length, count"
attr unit bytes
scalar NetLEO.rte[2].queue[0] rxBytes:sum 45592586
attr interpolationmode none
attr title "received packet byte length, sum"
attr unit bytes
statistic NetLEO.rte[2].queue[0] rxBytes:histogram
field count 3588
field mean 12706.963768116
field stddev 18998.593776695
field min 152
field max 92700
field sum 45592586
field sqrsum 1874058668816
attr interpolationmode none
attr title "received packet byte length, histogram"
attr unit bytes
bin	-inf	0
bin	0	1892
bin	2000	8
bin	4000	4
bin	6000	354
bin	8000	66
bin	10000	160
bin	12000	0
bin	14000	96
bin	16000	16
bin	18000	0
bin	20000	74
bin	22000	424
bin	24000	5
bin	26000	32
bin	28000	64
bin	30000	0
bin	32000	0
bin	34000	0
bin	36000	0
bin	38000	0
bin	40000	0
bin	42000	2
bin	44000	200
bin	46000	21
bin	48000	0
bin	50000	0
bin	52000	32
bin	54000	0
bin	56000	0
bin	58000	0
bin	60000	0
bin	62000	0
bin	64000	1
bin	66000	33
bin	68000	35
bin	70000	2
bin	72000	0
bin	74000	0
bin	76000	0
bin	78000	0
bin	80000	0
bin	82000	0
bin	84000	0
bin	86000	0
bin	88000	0
bin	90000	1
bin	92000	66
bin	94000	0
scalar NetLEO.rte[2].queue[0] txBytes:count 4882
attr interpolationmode none
attr title "transmitting packet byte length, count"
attr unit bytes
scalar NetLEO.rte[2].queue[0] txBytes:sum 77735356
attr interpolationmode none
attr title "transmitting packet byte length, sum"
attr unit bytes
statistic NetLEO.rte[2].queue[0] txBytes:histogram
field count 4882
field mean 15922.850471118
field stddev 19561.162595423
field min 152
field max 92700
field sum 77735356
field sqrsum 3105429809562
attr interpolationmode none
attr title "transmitting packet byte length, histogram"
attr unit bytes
bin	-inf	0
bin	0	1944
bin	2000	0
bin	4000	2
bin	6000	514
bin	8000	121
bin	10000	394
bin	12000	8
bin	14000	152
bin	16000	46
bin	18000	2
bin	20000	97
bin	22000	710
bin	24000	8
bin	26000	60
bin	28000	120
bin	30000	0
bin	32000	0
bin	34000	0
bin	36000	0
bin	38000	0
bin	40000	1
bin	42000	10
bin	44000	339
bin	46000	53
bin	48000	1
bin	50000	0
bin	52000	60
bin	54000	0
bin	56000	0
bin	58000	0
bin	60000	0
bin	62000	0
bin	64000	1
bin	66000	61
bin	68000	110
bin	70000	1
bin	72000	0
bin	74000	0
bin	76000	0
bin	78000	0
bin	80000	0
bin	82000	0
bin	84000	0
bin	86000	0
bin	88000	0
bin	90000	1
bin	92000	66
bin	94000	0
scalar NetLEO.rte[2].queue[0] busy:timeavg 0
attr interpolationmode sample-hold
attr title "server busy state, timeavg"
scalar NetLEO.rte[2].queue[0] qlen:timeavg 0
attr interpolationmode sample-hold
attr title "queue length, timeavg"
scalar NetLEO.rte[2].queue[0] qlen:max 31
attr interpolationmode sample-hold
attr title "queue length, max"
scalar NetLEO.rte[2].queue[0] drop:count 0
attr interpolationmode none
attr title "dropped packet byte length, count"
attr unit bytes
scalar NetLEO.rte[2].queue[0] drop:sum 0
attr interpolationmode none
attr title "dropped packet byte length, sum"
attr unit bytes
scalar NetLEO.rte[2].queue[1] rxBytes:count 4809
attr interpolationmode none
attr title "received packet byte length, count"
attr unit bytes
scalar NetLEO.rte[2].queue[1] rxBytes:sum 75391808
attr interpolationmode none
attr title "received packet byte length, sum"
attr unit bytes
statistic NetLEO.rte[2].queue[1] rxBytes:histogram
field count 4809
field mean 15677.231856935
field stddev 19421.873256836
field min 152
field max 92700
field sum 75391808
field sqrsum 2995556499278
attr interpolationmode none
attr title "received packet byte length, histogram"
attr unit bytes
bin	-inf	0
bin	0	1935
bin	2000	0
bin	4000	2
bin	6000	514
bin	8000	121
bin	10000	394
bin	12000	8
bin	14000	152
bin	16000	46
bin	18000	2
bin	20000	89
bin	22000	683
bin	24000	4
bin	26000	60
bin	28000	120
bin	30000	0
bin	32000	0
bin	34000	0
bin	36000	0
bin	38000	0
bin	40000	1
bin	42000	6
bin	44000	333
bin	46000	49
bin	48000	0
bin	50000	0
bin	52000	60
bin	54000	0
bin	56000	0
bin	58000	0
bin	60000	0
bin	62000	0
bin	64000	0
bin	66000	60
bin	68000	106
bin	70000	0
bin	72000	0
bin	74000	0
bin	76000	0
bin	78000	0
bin	80000	0
bin	82000	0
bin	84000	0
bin	86000	0
bin	88000	0
bin	90000	0
bin	92000	64
bin	94000	0
scalar NetLEO.rte[2].queue[1] txBytes:count 3661
attr interpolationmode none
attr title "transmitting packet byte length, count"
attr unit bytes
scalar NetLEO.rte[2].queue[1] txBytes:sum 47936134
attr interpolationmode none
attr title "transmitting packet byte length, sum"
attr unit bytes
statistic NetLEO.rte[2].queue[1] txBytes:histogram
field count 3661
field mean 13093.726850587
field stddev 19250.075113265
field min 152
field max 92700
field sum 47936134
field sqrsum 1983931979100
attr interpolationmode none
attr title "transmitting packet byte length, histogram"
attr unit bytes
bin	-inf	0
bin	0	1901
bin	2000	8
bin	4000	4
bin	6000	354
bin	8000	66
bin	10000	160
bin	12000	0
bin	14000	96
bin	16000	16
bin	18000	0
bin	20000	82
bin	22000	451
bin	24000	9
bin	26000	32
bin	28000	64
bin	30000	0
bin	32000	0
bin	34000	0
bin	36000	0
bin	38000	0
bin	40000	0
bin	42000	6
bin	44000	206
bin	46000	25
bin	48000	1
bin	50000	0
bin	52000	32
bin	54000	0
bin	56000	0
bin	58000	0
bin	60000	0
bin	62000	0
bin	64000	2
bin	66000	34
bin	68000	39
bin	70000	3
bin	72000	0
bin	74000	0
bin	76000	0
bin	78000	0
bin	80000	0
bin	82000	0
bin	84000	0
bin	86000	0
bin	88000	0
bin	90000	2
bin	92000	68
bin	94000	0
scalar NetLEO.rte[2].queue[1] busy:timeavg 0
attr interpolationmode sample-hold
attr title "server busy state, timeavg"
scalar NetLEO.rte[2].queue[1] qlen:timeavg 0
attr interpolationmode sample-hold
attr title "queue length, timeavg"
scalar NetLEO.rte[2].queue[1] qlen:max 63
attr interpolationmode sample-hold
attr title "queue length, max"
scalar NetLEO.rte[2].queue[1] drop:count 0
attr interpolationmode none
attr title "dropped packet byte length, count"
attr unit bytes
scalar NetLEO.rte[2].queue[1] drop:sum 0
attr interpolationmode none
attr title "dropped packet byte length, sum"
attr unit bytes
scalar NetLEO.rte[2].queue[2] rxBytes:count 0
attr interpolationmode none
attr title "received packet byte length, count"
attr unit bytes
scalar NetLEO.rte[2].queue[2] rxBytes:sum 0
attr interpolationmode none
attr title "received packet byte length, sum"
attr unit bytes
statistic NetLEO.rte[2].queue[2] rxBytes:histogram
field count 0
field mean -nan
field stddev -nan
field min -nan
field max -nan
field sum 0
field sqrsum 0
attr interpolationmode none
attr title "received packet byte length, histogram"
attr unit bytes
bin	-inf	0
bin	0	0
bin	1	0
scalar NetLEO.rte[2].queue[2] txBytes:count 0
attr interpolationmode none
attr title "transmitting packet byte length, count"
attr unit bytes
scalar NetLEO.rte[2].queue[2] txBytes:sum 0
attr interpolationmode none
attr title "transmitting packet byte length, sum"
attr unit bytes
statistic NetLEO.rte[2].queue[2] txBytes:histogram
field count 0
field mean -nan
field stddev -nan
field min -nan
field max -nan
field sum 0
field sqrsum 0
attr interpolationmode none
attr title "transmitting packet byte length, histogram"
attr unit bytes
bin	-inf	0
bin	0	0
bin	1	0
scalar NetLEO.rte[2].queue[2] busy:timeavg 0
attr interpolationmode sample-hold
attr title "server busy state, timeavg"
scalar NetLEO.rte[2].queue[2] qlen:timeavg 0
attr interpolationmode sample-hold
attr title "queue length, timeavg"
scalar NetLEO.rte[2].queue[2] qlen:max 0
attr interpolationmode sample-hold
attr title "queue length, max"
scalar NetLEO.rte[2].queue[2] drop:count 0
attr interpolationmode none
attr title "dropped packet byte length, count"
attr unit bytes
scalar NetLEO.rte[2].queue[2] drop:sum 0
attr interpolationmode none
attr title "dropped packet byte length, sum"
attr unit bytes
scalar NetLEO.rte[2].queue[3] rxBytes:count 0
attr interpolationmode none
attr title "received packet byte length, count"
attr unit bytes
scalar NetLEO.rte[2].queue[3] rxBytes:sum 0
attr interpolationmode none
attr title "received packet byte length, sum"
attr unit bytes
statistic NetLEO.rte[2].queue[3] rxBytes:histogram
field count 0
field mean -nan
field stddev -nan
field min -nan
field max -nan
field sum 0
field sqrsum 0
attr interpolationmode none
attr title "received packet byte length, histogram"
attr unit bytes
bin	-inf	0
bin	0	0
bin	1	0
scalar NetLEO.rte[2].queue[3] txBytes:count 0
attr interpolationmode none
attr title "transmitting packet byte length, count"
attr unit bytes
scalar NetLEO.rte[2].queue[3] txBytes:sum 0
attr interpolationmode none
attr title "transmitting packet byte length, sum"
attr unit bytes
statistic NetLEO.rte[2].queue[3] txBytes:histogram
field count 0
field mean -nan
field stddev -nan
field min -nan
field max -nan
field sum 0
field sqrsum 0
attr interpolationmode none
attr title "transmitting packet byte length, histogram"
attr unit bytes
bin	-inf	0
bin	0	0
bin	1	0
scalar NetLEO.rte[2].queue[3] busy:timeavg 0
attr interpolationmode sample-hold
attr title "server busy state, timeavg"
scalar NetLEO.rte[2].queue[3] qlen:timeavg 0
attr interpolationmode sample-hold
attr title "queue length, timeavg"
scalar NetLEO.rte[2].queue[3] qlen:max 0
attr interpolationmode sample-hold
attr title "queue length, max"
scalar NetLEO.rte[2].queue[3] drop:count 0
attr interpolationmode none
attr title "dropped packet byte length, count"
attr unit bytes
scalar NetLEO.rte[2].queue[3] drop:sum 0
attr interpolationmode none
attr title "dropped packet byte length, sum"
attr unit bytes
statistic NetLEO.rte[3].app sourceAddress:histogram
field count 0
field mean -nan
field stddev -nan
field min -nan
field max -nan
field sum 0
field sqrsum 0
attr interpolationmode none
attr title "source address of arrived packets, histogram"
bin	-inf	0
bin	0	0
bin	1	0
statistic NetLEO.rte[3].app hopCount:histogram
field count 0
field mean -nan
field stddev -nan
field min -nan
field max -nan
field sum 0
field sqrsum 0
attr interpolationmode none
attr title "hop count of arrived packets, histogram"
bin	-inf	0
bin	0	0
bin	1	0
scalar NetLEO.rte[3].app hopCount:mean -nan
attr interpolationmode none
attr title "hop count of arrived packets, mean"
scalar NetLEO.rte[3].app hopCount:max -nan
attr interpolationmode none
attr title "hop count of arrived packets, max"
statistic NetLEO.rte[3].app endToEndDelay:histogram
field count 0
field mean -nan
field stddev -nan
field min -nan
field max -nan
field sum 0
field sqrsum 0
attr interpolationmode none
attr title "end-to-end delay of arrived packets, histogram"
attr unit s
bin	-inf	0
bin	0	0
bin	1	0
scalar NetLEO.rte[3].app endToEndDelay:mean -nan
attr interpolationmode none
attr title "end-to-end delay of arrived packets, mean"
attr unit s
scalar NetLEO.rte[3].app endToEndDelay:max -nan
attr interpolationmode none
attr title "end-to-end delay of arrived packets, max"
attr unit s
statistic NetLEO.rte[3].routing outputIf:histogram
field count 21787
field mean 0.0014228668472025
field stddev 0.88814824350882
field min -1
field max 2
field sum 31
field sqrsum 17185
attr interpolationmode none
attr title "output interface for each routed packet, histogram"
bin	-inf	0
bin	-2	0
bin	-1	8508
bin	0	4809
bin	1	8401
bin	2	69
bin	3	0
scalar NetLEO.rte[3].routing drop:count 0
attr interpolationmode none
attr title "dropped packet byte length, count"
attr unit bytes
scalar NetLEO.rte[3].routing drop:sum 0
attr interpolationmode none
attr title "dropped packet byte length, sum"
attr unit bytes
scalar NetLEO.rte[3].queue[0] rxBytes:count 3661
attr interpolationmode none
attr title "received packet byte length, count"
attr unit bytes
scalar NetLEO.rte[3].queue[0] rxBytes:sum 47936134
attr interpolationmode none
attr title "received packet byte length, sum"
attr unit bytes
statistic NetLEO.rte[3].queue[0] rxBytes:histogram
field count 3661
field mean 13093.726850587
field stddev 19250.075113265
field min 152
field max 92700
field sum 47936134
field sqrsum 1983931979100
attr interpolationmode none
attr title "received packet byte length, histogram"
attr unit bytes
bin	-inf	0
bin	0	1901
bin	2000	8
bin	4000	4
bin	6000	354
bin	8000	66
bin	10000	160
bin	12000	0
bin	14000	96
bin	16000	16
bin	18000	0
bin	20000	82
bin	22000	451
bin	24000	9
bin	26000	32
bin	28000	64
bin	30000	0
bin	32000	0
bin	34000	0
bin	36000	0
bin	38000	0
bin	40000	0
bin	42000	6
bin	44000	206
bin	46000	25
bin	48000	1
bin	50000	0
bin	52000	32
bin	54000	0
bin	56000	0
bin	58000	0
bin	60000	0
bin	62000	0
bin	64000	2
bin	66000	34
bin	68000	39
bin	70000	3
bin	72000	0
bin	74000	0
bin	76000	0
bin	78000	0
bin	80000	0
bin	82000	0
bin	84000	0
bin	86000	0
bin	88000	0
bin	90000	2
bin	92000	68
bin	94000	0
scalar NetLEO.rte[3].queue[0] txBytes:count 4809
attr interpolationmode none
attr title "transmitting packet byte length, count"
attr unit bytes
scalar NetLEO.rte[3].queue[0] txBytes:sum 75391808
attr interpolationmode none
attr title "transmitting packet byte length, sum"
attr unit bytes
statistic NetLEO.rte[3].queue[0] txBytes:histogram
field count 4809
field mean 15677.231856935
field stddev 19421.873256836
field min 152
field max 92700
field sum 75391808
field sqrsum 2995556499278
attr interpolationmode none
attr title "transmitting packet byte length, histogram"
attr unit bytes
bin	-inf	0
bin	0	1935
bin	2000	0
bin	4000	2
bin	6000	514
bin	8000	121
bin	10000	394
bin	12000	8
bin	14000	152
bin	16000	46
bin	18000	2
bin	20000	89
bin	22000	683
bin	24000	4
bin	26000	60
bin	28000	120
bin	30000	0
bin	32000	0
bin	34000	0
bin	36000	0
bin	38000	0
bin	40000	1
bin	42000	6
bin	44000	333
bin	46000	49
bin	48000	0
bin	50000	0
bin	52000	60
bin	54000	0
bin	56000	0
bin	58000	0
bin	60000	0
bin	62000	0
bin	64000	0
bin	66000	60
bin	68000	106
bin	70000	0
bin	72000	0
bin	74000	0
bin	76000	0
bin	78000	0
bin	80000	0
bin	82000	0
bin	84000	0
bin	86000	0
bin	88000	0
bin	90000	0
bin	92000	64
bin	94000	0
scalar NetLEO.rte[3].queue[0] busy:timeavg 0
attr interpolationmode sample-hold
attr title "server busy state, timeavg"
scalar NetLEO.rte[3].queue[0] qlen:timeavg 0
attr interpolationmode sample-hold
attr title "queue length, timeavg"
scalar NetLEO.rte[3].queue[0] qlen:max 31
attr interpolationmode sample-hold
attr title "queue length, max"
scalar NetLEO.rte[3].queue[0] drop:count 0
attr interpolationmode none
attr title "dropped packet byte length, count"
attr unit bytes
scalar NetLEO.rte[3].queue[0] drop:sum 0
attr interpolationmode none
attr title "dropped packet byte length, sum"
attr unit bytes
scalar NetLEO.rte[3].queue[1] rxBytes:count 4830
attr interpolationmode none
attr title "received packet byte length, count"
attr unit bytes
scalar NetLEO.rte[3].queue[1] rxBytes:sum 76460050
attr interpolationmode none
attr title "received packet byte length, sum"
attr unit bytes
statistic NetLEO.rte[3].queue[1] rxBytes:histogram
field count 4830
field mean 15830.238095238
field stddev 19476.818256039
field min 152
field max 92700
field sum 76460050
field sqrsum 3042244800324
attr interpolationmode none
attr title "received packet byte length, histogram"
attr unit bytes
bin	-inf	0
bin	0	1924
bin	2000	0
bin	4000	2
bin	6000	514
bin	8000	121
bin	10000	394
bin	12000	8
bin	14000	152
bin	16000	46
bin	18000	2
bin	20000	95
bin	22000	696
bin	24000	5
bin	26000	60
bin	28000	120
bin	30000	0
bin	32000	0
bin	34000	0
bin	36000	0
bin	38000	0
bin	40000	1
bin	42000	9
bin	44000	338
bin	46000	50
bin	48000	0
bin	50000	0
bin	52000	60
bin	54000	0
bin	56000	0
bin	58000	0
bin	60000	0
bin	62000	0
bin	64000	0
bin	66000	60
bin	68000	108
bin	70000	0
bin	72000	0
bin	74000	0
bin	76000	0
bin	78000	0
bin	80000	0
bin	82000	0
bin	84000	0
bin	86000	0
bin	88000	0
bin	90000	0
bin	92000	65
bin	94000	0
scalar NetLEO.rte[3].queue[1] txBytes:count 8401
attr interpolationmode none
attr title "transmitting packet byte length, count"
attr unit bytes
scalar NetLEO.rte[3].queue[1] txBytes:sum 123278846
attr interpolationmode none
attr title "transmitting packet byte length, sum"
attr unit bytes
statistic NetLEO.rte[3].queue[1] txBytes:histogram
field count 8401
field mean 14674.306154029
field stddev 19427.538106128
field min 152
field max 92700
field sum 123278846
field sqrsum 4979437118186
attr interpolationmode none
attr title "transmitting packet byte length, histogram"
attr unit bytes
bin	-inf	0
bin	0	3767
bin	2000	8
bin	4000	6
bin	6000	868
bin	8000	187
bin	10000	554
bin	12000	8
bin	14000	248
bin	16000	62
bin	18000	2
bin	20000	171
bin	22000	1134
bin	24000	13
bin	26000	92
bin	28000	184
bin	30000	0
bin	32000	0
bin	34000	0
bin	36000	0
bin	38000	0
bin	40000	1
bin	42000	12
bin	44000	539
bin	46000	74
bin	48000	1
bin	50000	0
bin	52000	92
bin	54000	0
bin	56000	0
bin	58000	0
bin	60000	0
bin	62000	0
bin	64000	2
bin	66000	94
bin	68000	145
bin	70000	3
bin	72000	0
bin	74000	0
bin	76000	0
bin	78000	0
bin	80000	0
bin	82000	0
bin	84000	0
bin	86000	0
bin	88000	0
bin	90000	2
bin	92000	132
bin	94000	0
scalar NetLEO.rte[3].queue[1] busy:timeavg 0
attr interpolationmode sample-hold
attr title "server busy state, timeavg"
scalar NetLEO.rte[3].queue[1] qlen:timeavg 0
attr interpolationmode sample-hold
attr title "queue length, timeavg"
scalar NetLEO.rte[3].queue[1] qlen:max 63
attr interpolationmode sample-hold
attr title "queue length, max"
scalar NetLEO.rte[3].queue[1] drop:count 0
attr interpolationmode none
attr title "dropped packet byte length, count"
attr unit bytes
scalar NetLEO.rte[3].queue[1] drop:sum 0
attr interpolationmode none
attr title "dropped packet byte length, sum"
attr unit bytes
scalar NetLEO.rte[3].queue[2] rxBytes:count 17
attr interpolationmode none
attr title "received packet byte length, count"
attr unit bytes
scalar NetLEO.rte[3].queue[2] rxBytes:sum 31008
attr interpolationmode none
attr title "received packet byte length, sum"
attr unit bytes
statistic NetLEO.rte[3].queue[2] rxBytes:histogram
field count 17
field mean 1824
field stddev 0
field min 1824
field max 1824
field sum 31008
field sqrsum 56558592
attr interpolationmode none
attr title "received packet byte length, histogram"
attr unit bytes
bin	-inf	0
bin	1823	0
bin	1824	17
bin	1825	0
scalar NetLEO.rte[3].queue[2] txBytes:count 69
attr interpolationmode none
attr title "transmitting packet byte length, count"
attr unit bytes
scalar NetLEO.rte[3].queue[2] txBytes:sum 49096
attr interpolationmode none
attr title "transmitting packet byte length, sum"
attr unit bytes
statistic NetLEO.rte[3].queue[2] txBytes:histogram
field count 69
field mean 711.53623188406
field stddev 491.49545446136
field min 304
field max 1824
field sum 49096
field sqrsum 51360192
attr interpolationmode none
attr title "transmitting packet byte length, histogram"
attr unit bytes
bin	-inf	0
bin	0	0
bin	20	0
bin	40	0
bin	60	0
bin	80	0
bin	100	0
bin	120	0
bin	140	0
bin	160	0
bin	180	0
bin	200	0
bin	220	0
bin	240	0
bin	260	0
bin	280	0
bin	300	28
bin	320	0
bin	340	0
bin	360	0
bin	380	0
bin	400	0
bin	420	0
bin	440	1
bin	460	0
bin	480	0
bin	500	0
bin	520	0
bin	540	0
bin	560	0
bin	580	0
bin	600	18
bin	620	0
bin	640	0
bin	660	0
bin	680	0
bin	700	0
bin	720	0
bin	740	0
bin	760	3
bin	780	0
bin	800	0
bin	820	0
bin	840	0
bin	860	0
bin	880	0
bin	900	3
bin	920	0
bin	940	0
bin	960	0
bin	980	0
bin	1000	0
bin	1020	0
bin	1040	0
bin	1060	1
bin	1080	0
bin	1100	0
bin	1120	0
bin	1140	0
bin	1160	0
bin	1180	0
bin	1200	4
bin	1220	0
bin	1240	0
bin	1260	0
bin	1280	0
bin	1300	0
bin	1320	0
bin	1340	0
bin	1360	2
bin	1380	0
bin	1400	0
bin	1420	0
bin	1440	0
bin	1460	0
bin	1480	0
bin	1500	0
bin	1520	3
bin	1540	0
bin	1560	0
bin	1580	0
bin	1600	0
bin	1620	0
bin	1640	0
bin	1660	0
bin	1680	0
bin	1700	0
bin	1720	0
bin	1740	0
bin	1760	0
bin	1780	0
bin	1800	0
bin	1820	6
bin	1840	0
scalar NetLEO.rte[3].queue[2] busy:timeavg 0
attr interpolationmode sample-hold
attr title "server busy state, timeavg"
scalar NetLEO.rte[3].queue[2] qlen:timeavg 0
attr interpolationmode sample-hold
attr title "queue length, timeavg"
scalar NetLEO.rte[3].queue[2] qlen:max 3
attr interpolationmode sample-hold
attr title "queue length, max"
scalar NetLEO.rte[3].queue[2] drop:count 0
attr interpolationmode none
attr title "dropped packet byte length, count"
attr unit bytes
scalar NetLEO.rte[3].queue[2] drop:sum 0
attr interpolationmode none
attr title "dropped packet byte length, sum"
attr unit bytes
scalar NetLEO.rte[3].queue[3] rxBytes:count 0
attr interpolationmode none
attr title "received packet byte length, count"
attr unit bytes
scalar NetLEO.rte[3].queue[3] rxBytes:sum 0
attr interpolationmode none
attr title "received packet byte length, sum"
attr unit bytes
statistic NetLEO.rte[3].queue[3] rxBytes:histogram
field count 0
field mean -nan
field stddev -nan
field min -nan
field max -nan
field sum 0
field sqrsum 0
attr interpolationmode none
attr title "received packet byte length, histogram"
attr unit bytes
bin	-inf	0
bin	0	0
bin	1	0
scalar NetLEO.rte[3].queue[3] txBytes:count 0
attr interpolationmode none
attr title "transmitting packet byte length, count"
attr unit bytes
scalar NetLEO.rte[3].queue[3] txBytes:sum 0
attr interpolationmode none
attr title "transmitting packet byte length, sum"
attr unit bytes
statistic NetLEO.rte[3].queue[3] txBytes:histogram
field count 0
field mean -nan
field stddev -nan
field min -nan
field max -nan
field sum 0
field sqrsum 0
attr interpolationmode none
attr title "transmitting packet byte length, histogram"
attr unit bytes
bin	-inf	0
bin	0	0
bin	1	0
scalar NetLEO.rte[3].queue[3] busy:timeavg 0
attr interpolationmode sample-hold
attr title "server busy state, timeavg"
scalar NetLEO.rte[3].queue[3] qlen:timeavg 0
attr interpolationmode sample-hold
attr title "queue length, timeavg"
scalar NetLEO.rte[3].queue[3] qlen:max 0
attr interpolationmode sample-hold
attr title "queue length, max"
scalar NetLEO.rte[3].queue[3] drop:count 0
attr interpolationmode none
attr title "dropped packet byte length, count"
attr unit bytes
scalar NetLEO.rte[3].queue[3] drop:sum 0
attr interpolationmode none
attr title "dropped packet byte length, sum"
attr unit bytes
statistic NetLEO.rte[4].app sourceAddress:histogram
field count 0
field mean -nan
field stddev -nan
field min -nan
field max -nan
field sum 0
field sqrsum 0
attr interpolationmode none
attr title "source address of arrived packets, histogram"
bin	-inf	0
bin	0	0
bin	1	0
statistic NetLEO.rte[4].app hopCount:histogram
field count 0
field mean -nan
field stddev -nan
field min -nan
field max -nan
field sum 0
field sqrsum 0
attr interpolationmode none
attr title "hop count of arrived packets, histogram"
bin	-inf	0
bin	0	0
bin	1	0
scalar NetLEO.rte[4].app hopCount:mean -nan
attr interpolationmode none
attr title "hop count of arrived packets, mean"
scalar NetLEO.rte[4].app hopCount:max -nan
attr interpolationmode none
attr title "hop count of arrived packets, max"
statistic NetLEO.rte[4].app endToEndDelay:histogram
field count 0
field mean -nan
field stddev -nan
field min -nan
field max -nan
field sum 0
field sqrsum 0
attr interpolationmode none
attr title "end-to-end delay of arrived packets, histogram"
attr unit s
bin	-inf	0
bin	0	0
bin	1	0
scalar NetLEO.rte[4].app endToEndDelay:mean -nan
attr interpolationmode none
attr title "end-to-end delay of arrived packets, mean"
attr unit s
scalar NetLEO.rte[4].app endToEndDelay:max -nan
attr interpolationmode none
attr title "end-to-end delay of arrived packets, max"
attr unit s
statistic NetLEO.rte[4].routing outputIf:histogram
field count 33170
field mean 0.27259571902321
field stddev 1.1950129712034
field min -1
field max 2
field sum 9042
field sqrsum 49832
attr interpolationmode none
attr title "output interface for each routed packet, histogram"
bin	-inf	0
bin	-2	0
bin	-1	13231
bin	0	4830
bin	1	7945
bin	2	7164
bin	3	0
scalar NetLEO.rte[4].routing drop:count 0
attr interpolationmode none
attr title "dropped packet byte length, count"
attr unit bytes
scalar NetLEO.rte[4].routing drop:sum 0
attr interpolationmode none
attr title "dropped packet byte length, sum"
attr unit bytes
scalar NetLEO.rte[4].queue[0] rxBytes:count 8401
attr interpolationmode none
attr title "received packet byte length, count"
attr unit bytes
scalar NetLEO.rte[4].queue[0] rxBytes:sum 123278846
attr interpolationmode none
attr title "received packet byte length, sum"
attr unit bytes
statistic NetLEO.rte[4].queue[0] rxBytes:histogram
field count 8401
field mean 14674.306154029
field stddev 19427.538106128
field min 152
field max 92700
field sum 123278846
field sqrsum 4979437118186
attr interpolationmode none
attr title "received packet byte length, histogram"
attr unit bytes
bin	-inf	0
bin	0	3767
bin	2000	8
bin	4000	6
bin	6000	868
bin	8000	187
bin	10000	554
bin	12000	8
bin	14000	248
bin	16000	62
bin	18000	2
bin	20000	171
bin	22000	1134
bin	24000	13
bin	26000	92
bin	28000	184
bin	30000	0
bin	32000	0
bin	34000	0
bin	36000	0
bin	38000	0
bin	40000	1
bin	42000	12
bin	44000	539
bin	46000	74
bin	48000	1
bin	50000	0
bin	52000	92
bin	54000	0
bin	56000	0
bin	58000	0
bin	60000	0
bin	62000	0
bin	64000	2
bin	66000	94
bin	68000	145
bin	70000	3
bin	72000	0
bin	74000	0
bin	76000	0
bin	78000	0
bin	80000	0
bin	82000	0
bin	84000	0
bin	86000	0
bin	88000	0
bin	90000	2
bin	92000	132
bin	94000	0
scalar NetLEO.rte[4].queue[0] txBytes:count 4830
attr interpolationmode none
attr title "transmitting packet byte length, count"
attr unit bytes
scalar NetLEO.rte[4].queue[0] txBytes:sum 76460050
attr interpolationmode none
attr title "transmitting packet byte length, sum"
attr unit bytes
statistic NetLEO.rte[4].queue[0] txBytes:histogram
field count 4830
field mean 15830.238095238
field stddev 19476.818256039
field min 152
field max 92700
field sum 76460050
field sqrsum 3042244800324
attr interpolationmode none
attr title "transmitting packet byte length, histogram"
attr unit bytes
bin	-inf	0
bin	0	1924
bin	2000	0
bin	4000	2
bin	6000	514
bin	8000	121
bin	10000	394
bin	12000	8
bin	14000	152
bin	16000	46
bin	18000	2
bin	20000	95
bin	22000	696
bin	24000	5
bin	26000	60
bin	28000	120
bin	30000	0
bin	32000	0
bin	34000	0
bin	36000	0
bin	38000	0
bin	40000	1
bin	42000	9
bin	44000	338
bin	46000	50
bin	48000	0
bin	50000	0
bin	52000	60
bin	54000	0
bin	56000	0
bin	58000	0
bin	60000	0
bin	62000	0
bin	64000	0
bin	66000	60
bin	68000	108
bin	70000	0
bin	72000	0
bin	74000	0
bin	76000	0
bin	78000	0
bin	80000	0
bin	82000	0
bin	84000	0
bin	86000	0
bin	88000	0
bin	90000	0
bin	92000	65
bin	94000	0
scalar NetLEO.rte[4].queue[0] busy:timeavg 0
attr interpolationmode sample-hold
attr title "server busy state, timeavg"
scalar NetLEO.rte[4].queue[0] qlen:timeavg 0
attr interpolationmode sample-hold
attr title "queue length, timeavg"
scalar NetLEO.rte[4].queue[0] qlen:max 31
attr interpolationmode sample-hold
attr title "queue length, max"
scalar NetLEO.rte[4].queue[0] drop:count 0
attr interpolationmode none
attr title "dropped packet byte length, count"
attr unit bytes
scalar NetLEO.rte[4].queue[0] drop:sum 0
attr interpolationmode none
attr title "dropped packet byte length, sum"
attr unit bytes
scalar NetLEO.rte[4].queue[1] rxBytes:count 1902
attr interpolationmode none
attr title "received packet byte length, count"
attr unit bytes
scalar NetLEO.rte[4].queue[1] rxBytes:sum 30091706
attr interpolationmode none
attr title "received packet byte length, sum"
attr unit bytes
statistic NetLEO.rte[4].queue[1] rxBytes:histogram
field count 1902
field mean 15821.086225026
field stddev 19122.079269185
field min 152
field max 92700
field sum 30091706
field sqrsum 1171191568796
attr interpolationmode none
attr title "received packet byte length, histogram"
attr unit bytes
bin	-inf	0
bin	0	732
bin	2000	0
bin	4000	0
bin	6000	218
bin	8000	32
bin	10000	182
bin	12000	0
bin	14000	67
bin	16000	25
bin	18000	0
bin	20000	31
bin	22000	284
bin	24000	1
bin	26000	16
bin	28000	32
bin	30000	0
bin	32000	0
bin	34000	0
bin	36000	0
bin	38000	0
bin	40000	0
bin	42000	4
bin	44000	146
bin	46000	27
bin	48000	0
bin	50000	0
bin	52000	16
bin	54000	0
bin	56000	0
bin	58000	0
bin	60000	0
bin	62000	0
bin	64000	0
bin	66000	16
bin	68000	54
bin	70000	0
bin	72000	0
bin	74000	0
bin	76000	0
bin	78000	0
bin	80000	0
bin	82000	0
bin	84000	0
bin	86000	0
bin	88000	0
bin	90000	0
bin	92000	19
bin	94000	0
scalar NetLEO.rte[4].queue[1] txBytes:count 7945
attr interpolationmode none
attr title "transmitting packet byte length, count"
attr unit bytes
scalar NetLEO.rte[4].queue[1] txBytes:sum 120120296
attr interpolationmode none
attr title "transmitting packet byte length, sum"
attr unit bytes
statistic NetLEO.rte[4].queue[1] txBytes:histogram
field count 7945
field mean 15118.979987413
field stddev 19725.60900279
field min 152
field max 92700
field sum 120120296
field sqrsum 4907103975124
attr interpolationmode none
attr title "transmitting packet byte length, histogram"
attr unit bytes
bin	-inf	0
bin	0	3526
bin	2000	8
bin	4000	6
bin	6000	732
bin	8000	187
bin	10000	554
bin	12000	8
bin	14000	214
bin	16000	62
bin	18000	2
bin	20000	163
bin	22000	1122
bin	24000	13
bin	26000	92
bin	28000	171
bin	30000	0
bin	32000	0
bin	34000	0
bin	36000	0
bin	38000	0
bin	40000	1
bin	42000	11
bin	44000	532
bin	46000	73
bin	48000	1
bin	50000	0
bin	52000	92
bin	54000	0
bin	56000	0
bin	58000	0
bin	60000	0
bin	62000	0
bin	64000	2
bin	66000	94
bin	68000	143
bin	70000	3
bin	72000	0
bin	74000	0
bin	76000	0
bin	78000	0
bin	80000	0
bin	82000	0
bin	84000	0
bin	86000	0
bin	88000	0
bin	90000	2
bin	92000	131
bin	94000	0
scalar NetLEO.rte[4].queue[1] busy:timeavg 0
attr interpolationmode sample-hold
attr title "server busy state, timeavg"
scalar NetLEO.rte[4].queue[1] qlen:timeavg 0
attr interpolationmode sample-hold
attr title "queue length, timeavg"
scalar NetLEO.rte[4].queue[1] qlen:max 63
attr interpolationmode sample-hold
attr title "queue length, max"
scalar NetLEO.rte[4].queue[1] drop:count 0
attr interpolationmode none
attr title "dropped packet byte length, count"
attr unit bytes
scalar NetLEO.rte[4].queue[1] drop:sum 0
attr interpolationmode none
attr title "dropped packet byte length, sum"
attr unit bytes
scalar NetLEO.rte[4].queue[2] rxBytes:count 2928
attr interpolationmode none
attr title "received packet byte length, count"
attr unit bytes
scalar NetLEO.rte[4].queue[2] rxBytes:sum 46368344
attr interpolationmode none
attr title "received packet byte length, sum"
attr unit bytes
statistic NetLEO.rte[4].queue[2] rxBytes:histogram
field count 2928
field mean 15836.183060109
field stddev 19707.076346611
field min 152
field max 92700
field sum 46368344
field sqrsum 1871053231528
attr interpolationmode none
attr title "received packet byte length, histogram"
attr unit bytes
bin	-inf	0
bin	0	1192
bin	2000	0
bin	4000	2
bin	6000	296
bin	8000	89
bin	10000	212
bin	12000	8
bin	14000	85
bin	16000	21
bin	18000	2
bin	20000	64
bin	22000	412
bin	24000	4
bin	26000	44
bin	28000	88
bin	30000	0
bin	32000	0
bin	34000	0
bin	36000	0
bin	38000	0
bin	40000	1
bin	42000	5
bin	44000	192
bin	46000	23
bin	48000	0
bin	50000	0
bin	52000	44
bin	54000	0
bin	56000	0
bin	58000	0
bin	60000	0
bin	62000	0
bin	64000	0
bin	66000	44
bin	68000	54
bin	70000	0
bin	72000	0
bin	74000	0
bin	76000	0
bin	78000	0
bin	80000	0
bin	82000	0
bin	84000	0
bin	86000	0
bin	88000	0
bin	90000	0
bin	92000	46
bin	94000	0
scalar NetLEO.rte[4].queue[2] txBytes:count 7164
attr interpolationmode none
attr title "transmitting packet byte length, count"
attr unit bytes
scalar NetLEO.rte[4].queue[2] txBytes:sum 114874130
attr interpolationmode none
attr title "transmitting packet byte length, sum"
attr unit bytes
statistic NetLEO.rte[4].queue[2] txBytes:histogram
field count 7164
field mean 16034.914852038
field stddev 19926.173302285
field min 152
field max 92700
field sum 114874130
field sqrsum 4686083108904
attr interpolationmode none
attr title "transmitting packet byte length, histogram"
attr unit bytes
bin	-inf	0
bin	0	2889
bin	2000	0
bin	4000	2
bin	6000	730
bin	8000	185
bin	10000	554
bin	12000	8
bin	14000	214
bin	16000	62
bin	18000	2
bin	20000	145
bin	22000	1071
bin	24000	4
bin	26000	92
bin	28000	171
bin	30000	0
bin	32000	0
bin	34000	0
bin	36000	0
bin	38000	0
bin	40000	1
bin	42000	5
bin	44000	518
bin	46000	64
bin	48000	0
bin	50000	0
bin	52000	92
bin	54000	0
bin	56000	0
bin	58000	0
bin	60000	0
bin	62000	0
bin	64000	0
bin	66000	92
bin	68000	136
bin	70000	0
bin	72000	0
bin	74000	0
bin	76000	0
bin	78000	0
bin	80000	0
bin	82000	0
bin	84000	0
bin	86000	0
bin	88000	0
bin	90000	0
bin	92000	127
bin	94000	0
scalar NetLEO.rte[4].queue[2] busy:timeavg 0
attr interpolationmode sample-hold
attr title "server busy state, timeavg"
scalar NetLEO.rte[4].queue[2] qlen:timeavg 0
attr interpolationmode sample-hold
attr title "queue length, timeavg"
scalar NetLEO.rte[4].queue[2] qlen:max 63
attr interpolationmode sample-hold
attr title "queue length, max"
scalar NetLEO.rte[4].queue[2] drop:count 0
attr interpolationmode none
attr title "dropped packet byte length, count"
attr unit bytes
scalar NetLEO.rte[4].queue[2] drop:sum 0
attr interpolationmode none
attr title "dropped packet byte length, sum"
attr unit bytes
scalar NetLEO.rte[4].queue[3] rxBytes:count 0
attr interpolationmode none
attr title "received packet byte length, count"
attr unit bytes
scalar NetLEO.rte[4].queue[3] rxBytes:sum 0
attr interpolationmode none
attr title "received packet byte length, sum"
attr unit bytes
statistic NetLEO.rte[4].queue[3] rxBytes:histogram
field count 0
field mean -nan
field stddev -nan
field min -nan
field max -nan
field sum 0
field sqrsum 0
attr interpolationmode none
attr title "received packet byte length, histogram"
attr unit bytes
bin	-inf	0
bin	0	0
bin	1	0
scalar NetLEO.rte[4].queue[3] txBytes:count 0
attr interpolationmode none
attr title "transmitting packet byte length, count"
attr unit bytes
scalar NetLEO.rte[4].queue[3] txBytes:sum 0
attr interpolationmode none
attr title "transmitting packet byte length, sum"
attr unit bytes
statistic NetLEO.rte[4].queue[3] txBytes:histogram
field count 0
field mean -nan
field stddev -nan
field min -nan
field max -nan
field sum 0
field sqrsum 0
attr interpolationmode none
attr title "transmitting packet byte length, histogram"
attr unit bytes
bin	-inf	0
bin	0	0
bin	1	0
scalar NetLEO.rte[4].queue[3] busy:timeavg 0
attr interpolationmode sample-hold
attr title "server busy state, timeavg"
scalar NetLEO.rte[4].queue[3] qlen:timeavg 0
attr interpolationmode sample-hold
attr title "queue length, timeavg"
scalar NetLEO.rte[4].queue[3] qlen:max 0
attr interpolationmode sample-hold
attr title "queue length, max"
scalar NetLEO.rte[4].queue[3] drop:count 0
attr interpolationmode none
attr title "dropped packet byte length, count"
attr unit bytes
scalar NetLEO.rte[4].queue[3] drop:sum 0
attr interpolationmode none
attr title "dropped packet byte length, sum"
attr unit bytes
statistic NetLEO.rte[5].app sourceAddress:histogram
field count 0
field mean -nan
field stddev -nan
field min -nan
field max -nan
field sum 0
field sqrsum 0
attr interpolationmode none
attr title "source address of arrived packets, histogram"
bin	-inf	0
bin	0	0
bin	1	0
statistic NetLEO.rte[5].app hopCount:histogram
field count 0
field mean -nan
field stddev -nan
field min -nan
field max -nan
field sum 0
field sqrsum 0
attr interpolationmode none
attr title "hop count of arrived packets, histogram"
bin	-inf	0
bin	0	0
bin	1	0
scalar NetLEO.rte[5].app hopCount:mean -nan
attr interpolationmode none
attr title "hop count of arrived packets, mean"
scalar NetLEO.rte[5].app hopCount:max -nan
attr interpolationmode none
attr title "hop count of arrived packets, max"
statistic NetLEO.rte[5].app endToEndDelay:histogram
field count 0
field mean -nan
field stddev -nan
field min -nan
field max -nan
field sum 0
field sqrsum 0
attr interpolationmode none
attr title "end-to-end delay of arrived packets, histogram"
attr unit s
bin	-inf	0
bin	0	0
bin	1	0
scalar NetLEO.rte[5].app endToEndDelay:mean -nan
attr interpolationmode none
attr title "end-to-end delay of arrived packets, mean"
attr unit s
scalar NetLEO.rte[5].app endToEndDelay:max -nan
attr interpolationmode none
attr title "end-to-end delay of arrived packets, max"
attr unit s
statistic NetLEO.rte[5].routing outputIf:histogram
field count 21198
field mean -0.0028304557033682
field stddev 0.98696104109964
field min -1
field max 3
field sum -60
field sqrsum 20648
attr interpolationmode none
attr title "output interface for each routed packet, histogram"
bin	-inf	0
bin	-2	0
bin	-1	9847
bin	0	1902
bin	1	9280
bin	2	0
bin	3	169
bin	4	0
scalar NetLEO.rte[5].routing drop:count 0
attr interpolationmode none
attr title "dropped packet byte length, count"
attr unit bytes
scalar NetLEO.rte[5].routing drop:sum 0
attr interpolationmode none
attr title "dropped packet byte length, sum"
attr unit bytes
scalar NetLEO.rte[5].queue[0] rxBytes:count 7945
attr interpolationmode none
attr title "received packet byte length, count"
attr unit bytes
scalar NetLEO.rte[5].queue[0] rxBytes:sum 120120296
attr interpolationmode none
attr title "received packet byte length, sum"
attr unit bytes
statistic NetLEO.rte[5].queue[0] rxBytes:histogram
field count 7945
field mean 15118.979987413
field stddev 19725.60900279
field min 152
field max 92700
field sum 120120296
field sqrsum 4907103975124
attr interpolationmode none
attr title "received packet byte length, histogram"
attr unit bytes
bin	-inf	0
bin	0	3526
bin	2000	8
bin	4000	6
bin	6000	732
bin	8000	187
bin	10000	554
bin	12000	8
bin	14000	214
bin	16000	62
bin	18000	2
bin	20000	163
bin	22000	1122
bin	24000	13
bin	26000	92
bin	28000	171
bin	30000	0
bin	32000	0
bin	34000	0
bin	36000	0
bin	38000	0
bin	40000	1
bin	42000	11
bin	44000	532
bin	46000	73
bin	48000	1
bin	50000	0
bin	52000	92
bin	54000	0
bin	56000	0
bin	58000	0
bin	60000	0
bin	62000	0
bin	64000	2
bin	66000	94
bin	68000	143
bin	70000	3
bin	72000	0
bin	74000	0
bin	76000	0
bin	78000	0
bin	80000	0
bin	82000	0
bin	84000	0
bin	86000	0
bin	88000	0
bin	90000	2
bin	92000	131
bin	94000	0
scalar NetLEO.rte[5].queue[0] txBytes:count 1902
attr interpolationmode none
attr title "transmitting packet byte length, count"
attr unit bytes
scalar NetLEO.rte[5].queue[0] txBytes:sum 30091706
attr interpolationmode none
attr title "transmitting packet byte length, sum"
attr unit bytes
statistic NetLEO.rte[5].queue[0] txBytes:histogram
field count 1902
field mean 15821.086225026
field stddev 19122.079269185
field min 152
field max 92700
field sum 30091706
field sqrsum 1171191568796
attr interpolationmode none
attr title "transmitting packet byte length, histogram"
attr unit bytes
bin	-inf	0
bin	0	732
bin	2000	0
bin	4000	0
bin	6000	218
bin	8000	32
bin	10000	182
bin	12000	0
bin	14000	67
bin	16000	25
bin	18000	0
bin	20000	31
bin	22000	284
bin	24000	1
bin	26000	16
bin	28000	32
bin	30000	0
bin	32000	0
bin	34000	0
bin	36000	0
bin	38000	0
bin	40000	0
bin	42000	4
bin	44000	146
bin	46000	27
bin	48000	0
bin	50000	0
bin	52000	16
bin	54000	0
bin	56000	0
bin	58000	0
bin	60000	0
bin	62000	0
bin	64000	0
bin	66000	16
bin	68000	54
bin	70000	0
bin	72000	0
bin	74000	0
bin	76000	0
bin	78000	0
bin	80000	0
bin	82000	0
bin	84000	0
bin	86000	0
bin	88000	0
bin	90000	0
bin	92000	19
bin	94000	0
scalar NetLEO.rte[5].queue[0] busy:timeavg 0
attr interpolationmode sample-hold
attr title "server busy state, timeavg"
scalar NetLEO.rte[5].queue[0] qlen:timeavg 0
attr interpolationmode sample-hold
attr title "queue length, timeavg"
scalar NetLEO.rte[5].queue[0] qlen:max 7
attr interpolationmode sample-hold
attr title "queue length, max"
scalar NetLEO.rte[5].queue[0] drop:count 0
attr interpolationmode none
attr title "dropped packet byte length, count"
attr unit bytes
scalar NetLEO.rte[5].queue[0] drop:sum 0
attr interpolationmode none
attr title "dropped packet byte length, sum"
attr unit bytes
scalar NetLEO.rte[5].queue[1] rxBytes:count 1902
attr interpolationmode none
attr title "received packet byte length, count"
attr unit bytes
scalar NetLEO.rte[5].queue[1] rxBytes:sum 30091706
attr interpolationmode none
attr title "received packet byte length, sum"
attr unit bytes
statistic NetLEO.rte[5].queue[1] rxBytes:histogram
field count 1902
field mean 15821.086225026
field stddev 19122.079269185
field min 152
field max 92700
field sum 30091706
field sqrsum 1171191568796
attr interpolationmode none
attr title "received packet byte length, histogram"
attr unit bytes
bin	-inf	0
bin	0	732
bin	2000	0
bin	4000	0
bin	6000	218
bin	8000	32
bin	10000	182
bin	12000	0
bin	14000	67
bin	16000	25
bin	18000	0
bin	20000	31
bin	22000	284
bin	24000	1
bin	26000	16
bin	28000	32
bin	30000	0
bin	32000	0
bin	34000	0
bin	36000	0
bin	38000	0
bin	40000	0
bin	42000	4
bin	44000	146
bin	46000	27
bin	48000	0
bin	50000	0
bin	52000	16
bin	54000	0
bin	56000	0
bin	58000	0
bin	60000	0
bin	62000	0
bin	64000	0
bin	66000	16
bin	68000	54
bin	70000	0
bin	72000	0
bin	74000	0
bin	76000	0
bin	78000	0
bin	80000	0
bin	82000	0
bin	84000	0
bin	86000	0
bin	88000	0
bin	90000	0
bin	92000	19
bin	94000	0
scalar NetLEO.rte[5].queue[1] txBytes:count 9280
attr interpolationmode none
attr title "transmitting packet byte length, count"
attr unit bytes
scalar NetLEO.rte[5].queue[1] txBytes:sum 177121878
attr interpolationmode none
attr title "transmitting packet byte length, sum"
attr unit bytes
statistic NetLEO.rte[5].queue[1] txBytes:histogram
field count 9280
field mean 19086.409267241
field stddev 21518.764076855
field min 152
field max 92700
field sum 177121878
field sqrsum 7677328481112
attr interpolationmode none
attr title "transmitting packet byte length, histogram"
attr unit bytes
bin	-inf	0
bin	0	3385
bin	2000	7
bin	4000	8
bin	6000	402
bin	8000	320
bin	10000	804
bin	12000	16
bin	14000	142
bin	16000	82
bin	18000	4
bin	20000	282
bin	22000	1769
bin	24000	17
bin	26000	158
bin	28000	188
bin	30000	0
bin	32000	0
bin	34000	0
bin	36000	0
bin	38000	0
bin	40000	2
bin	42000	16
bin	44000	830
bin	46000	95
bin	48000	1
bin	50000	0
bin	52000	158
bin	54000	0
bin	56000	0
bin	58000	0
bin	60000	0
bin	62000	0
bin	64000	2
bin	66000	160
bin	68000	195
bin	70000	3
bin	72000	0
bin	74000	0
bin	76000	0
bin	78000	0
bin	80000	0
bin	82000	0
bin	84000	0
bin	86000	0
bin	88000	0
bin	90000	2
bin	92000	232
bin	94000	0
scalar NetLEO.rte[5].queue[1] busy:timeavg 0
attr interpolationmode sample-hold
attr title "server busy state, timeavg"
scalar NetLEO.rte[5].queue[1] qlen:timeavg 0
attr interpolationmode sample-hold
attr title "queue length, timeavg"
scalar NetLEO.rte[5].queue[1] qlen:max 127
attr interpolationmode sample-hold
attr title "queue length, max"
scalar NetLEO.rte[5].queue[1] drop:count 0
attr interpolationmode none
attr title "dropped packet byte length, count"
attr unit bytes
scalar NetLEO.rte[5].queue[1] drop:sum 0
attr interpolationmode none
attr title "dropped packet byte length, sum"
attr unit bytes
scalar NetLEO.rte[5].queue[2] rxBytes:count 0
attr interpolationmode none
attr title "received packet byte length, count"
attr unit bytes
scalar NetLEO.rte[5].queue[2] rxBytes:sum 0
attr interpolationmode none
attr title "received packet byte length, sum"
attr unit bytes
statistic NetLEO.rte[5].queue[2] rxBytes:histogram
field count 0
field mean -nan
field stddev -nan
field min -nan
field max -nan
field sum 0
field sqrsum 0
attr interpolationmode none
attr title "received packet byte length, histogram"
attr unit bytes
bin	-inf	0
bin	0	0
bin	1	0
scalar NetLEO.rte[5].queue[2] txBytes:count 0
attr interpolationmode none
attr title "transmitting packet byte length, count"
attr unit bytes
scalar NetLEO.rte[5].queue[2] txBytes:sum 0
attr interpolationmode none
attr title "transmitting packet byte length, sum"
attr unit bytes
statistic NetLEO.rte[5].queue[2] txBytes:histogram
field count 0
field mean -nan
field stddev -nan
field min -nan
field max -nan
field sum 0
field sqrsum 0
attr interpolationmode none
attr title "transmitting packet byte length, histogram"
attr unit bytes
bin	-inf	0
bin	0	0
bin	1	0
scalar NetLEO.rte[5].queue[2] busy:timeavg 0
attr interpolationmode sample-hold
attr title "server busy state, timeavg"
scalar NetLEO.rte[5].queue[2] qlen:timeavg 0
attr interpolationmode sample-hold
attr title "queue length, timeavg"
scalar NetLEO.rte[5].queue[2] qlen:max 0
attr interpolationmode sample-hold
attr title "queue length, max"
scalar NetLEO.rte[5].queue[2] drop:count 0
attr interpolationmode none
attr title "dropped packet byte length, count"
attr unit bytes
scalar NetLEO.rte[5].queue[2] drop:sum 0
attr interpolationmode none
attr title "dropped packet byte length, sum"
attr unit bytes
scalar NetLEO.rte[5].queue[3] rxBytes:count 0
attr interpolationmode none
attr title "received packet byte length, count"
attr unit bytes
scalar NetLEO.rte[5].queue[3] rxBytes:sum 0
attr interpolationmode none
attr title "received packet byte length, sum"
attr unit bytes
statistic NetLEO.rte[5].queue[3] rxBytes:histogram
field count 0
field mean -nan
field stddev -nan
field min -nan
field max -nan
field sum 0
field sqrsum 0
attr interpolationmode none
attr title "received packet byte length, histogram"
attr unit bytes
bin	-inf	0
bin	0	0
bin	1	0
scalar NetLEO.rte[5].queue[3] txBytes:count 169
attr interpolationmode none
attr title "transmitting packet byte length, count"
attr unit bytes
scalar NetLEO.rte[5].queue[3] txBytes:sum 141512
attr interpolationmode none
attr title "transmitting packet byte length, sum"
attr unit bytes
statistic NetLEO.rte[5].queue[3] txBytes:histogram
field count 169
field mean 837.34911242604
field stddev 534.09449628925
field min 152
field max 2128
field sum 141512
field sqrsum 166418112
attr interpolationmode none
attr title "transmitting packet byte length, histogram"
attr unit bytes
bin	-inf	0
bin	0	0
bin	40	0
bin	80	0
bin	120	1
bin	160	0
bin	200	0
bin	240	0
bin	280	54
bin	320	0
bin	360	0
bin	400	0
bin	440	1
bin	480	0
bin	520	0
bin	560	0
bin	600	36
bin	640	0
bin	680	0
bin	720	0
bin	760	5
bin	800	0
bin	840	0
bin	880	16
bin	920	0
bin	960	0
bin	1000	0
bin	1040	7
bin	1080	0
bin	1120	0
bin	1160	0
bin	1200	12
bin	1240	0
bin	1280	0
bin	1320	0
bin	1360	7
bin	1400	0
bin	1440	0
bin	1480	0
bin	1520	8
bin	1560	0
bin	1600	0
bin	1640	1
bin	1680	0
bin	1720	0
bin	1760	0
bin	1800	19
bin	1840	0
bin	1880	0
bin	1920	0
bin	1960	1
bin	2000	0
bin	2040	0
bin	2080	0
bin	2120	1
bin	2160	0
scalar NetLEO.rte[5].queue[3] busy:timeavg 0
attr interpolationmode sample-hold
attr title "server busy state, timeavg"
scalar NetLEO.rte[5].queue[3] qlen:timeavg 0
attr interpolationmode sample-hold
attr title "queue length, timeavg"
scalar NetLEO.rte[5].queue[3] qlen:max 15
attr interpolationmode sample-hold
attr title "queue length, max"
scalar NetLEO.rte[5].queue[3] drop:count 0
attr interpolationmode none
attr title "dropped packet byte length, count"
attr unit bytes
scalar NetLEO.rte[5].queue[3] drop:sum 0
attr interpolationmode none
attr title "dropped packet byte length, sum"
attr unit bytes
statistic NetLEO.rte[6].app sourceAddress:histogram
field count 0
field mean -nan
field stddev -nan
field min -nan
field max -nan
field sum 0
field sqrsum 0
attr interpolationmode none
attr title "source address of arrived packets, histogram"
bin	-inf	0
bin	0	0
bin	1	0
statistic NetLEO.rte[6].app hopCount:histogram
field count 0
field mean -nan
field stddev -nan
field min -nan
field max -nan
field sum 0
field sqrsum 0
attr interpolationmode none
attr title "hop count of arrived packets, histogram"
bin	-inf	0
bin	0	0
bin	1	0
scalar NetLEO.rte[6].app hopCount:mean -nan
attr interpolationmode none
attr title "hop count of arrived packets, mean"
scalar NetLEO.rte[6].app hopCount:max -nan
attr interpolationmode none
attr title "hop count of arrived packets, max"
statistic NetLEO.rte[6].app endToEndDelay:histogram
field count 0
field mean -nan
field stddev -nan
field min -nan
field max -nan
field sum 0
field sqrsum 0
attr interpolationmode none
attr title "end-to-end delay of arrived packets, histogram"
attr unit s
bin	-inf	0
bin	0	0
bin	1	0
scalar NetLEO.rte[6].app endToEndDelay:mean -nan
attr interpolationmode none
attr title "end-to-end delay of arrived packets, mean"
attr unit s
scalar NetLEO.rte[6].app endToEndDelay:max -nan
attr interpolationmode none
attr title "end-to-end delay of arrived packets, max"
attr unit s
statistic NetLEO.rte[6].routing outputIf:histogram
field count 18732
field mean -0.039611360239163
field stddev 1.4222431316891
field min -1
field max 3
field sum -742
field sqrsum 37918
attr interpolationmode none
attr title "output interface for each routed packet, histogram"
bin	-inf	0
bin	-2	0
bin	-1	11422
bin	0	1902
bin	1	2772
bin	2	0
bin	3	2636
bin	4	0
scalar NetLEO.rte[6].routing drop:count 0
attr interpolationmode none
attr title "dropped packet byte length, count"
attr unit bytes
scalar NetLEO.rte[6].routing drop:sum 0
attr interpolationmode none
attr title "dropped packet byte length, sum"
attr unit bytes
scalar NetLEO.rte[6].queue[0] rxBytes:count 9280
attr interpolationmode none
attr title "received packet byte length, count"
attr unit bytes
scalar NetLEO.rte[6].queue[0] rxBytes:sum 177121878
attr interpolationmode none
attr title "received packet byte length, sum"
attr unit bytes
statistic NetLEO.rte[6].queue[0] rxBytes:histogram
field count 9280
field mean 19086.409267241
field stddev 21518.764076855
field min 152
field max 92700
field sum 177121878
field sqrsum 7677328481112
attr interpolationmode none
attr title "received packet byte length, histogram"
attr unit bytes
bin	-inf	0
bin	0	3385
bin	2000	7
bin	4000	8
bin	6000	402
bin	8000	320
bin	10000	804
bin	12000	16
bin	14000	142
bin	16000	82
bin	18000	4
bin	20000	282
bin	22000	1769
bin	24000	17
bin	26000	158
bin	28000	188
bin	30000	0
bin	32000	0
bin	34000	0
bin	36000	0
bin	38000	0
bin	40000	2
bin	42000	16
bin	44000	830
bin	46000	95
bin	48000	1
bin	50000	0
bin	52000	158
bin	54000	0
bin	56000	0
bin	58000	0
bin	60000	0
bin	62000	0
bin	64000	2
bin	66000	160
bin	68000	195
bin	70000	3
bin	72000	0
bin	74000	0
bin	76000	0
bin	78000	0
bin	80000	0
bin	82000	0
bin	84000	0
bin	86000	0
bin	88000	0
[...]
attr interpolationmode none
attr title "dropped packet byte length, count"
attr unit bytes
scalar NetLEO.rte[73].queue[0] drop:sum 0
attr interpolationmode none
attr title "dropped packet byte length, sum"
attr unit bytes
scalar NetLEO.rte[73].queue[1] rxBytes:count 229
attr interpolationmode none
attr title "received packet byte length, count"
attr unit bytes
scalar NetLEO.rte[73].queue[1] rxBytes:sum 262200
attr interpolationmode none
attr title "received packet byte length, sum"
attr unit bytes
statistic NetLEO.rte[73].queue[1] rxBytes:histogram
field count 229
field mean 1144.9781659389
field stddev 776.16178028186
field min 152
field max 4256
field sum 262200
field sqrsum 437566656
attr interpolationmode none
attr title "received packet byte length, histogram"
attr unit bytes
bin	-inf	0
bin	0	0
bin	100	12
bin	200	0
bin	300	24
bin	400	26
bin	500	0
bin	600	29
bin	700	13
bin	800	0
bin	900	13
bin	1000	6
bin	1100	0
bin	1200	20
bin	1300	7
bin	1400	0
bin	1500	12
bin	1600	9
bin	1700	0
bin	1800	19
bin	1900	8
bin	2000	0
bin	2100	9
bin	2200	5
bin	2300	0
bin	2400	10
bin	2500	1
bin	2600	0
bin	2700	2
bin	2800	0
bin	2900	0
bin	3000	1
bin	3100	0
bin	3200	0
bin	3300	0
bin	3400	0
bin	3500	0
bin	3600	1
bin	3700	0
bin	3800	0
bin	3900	1
bin	4000	0
bin	4100	0
bin	4200	1
bin	4300	0
bin	4400	0
bin	4500	0
bin	4600	0
bin	4700	0
bin	4800	0
bin	4900	0
bin	5000	0
bin	5100	0
bin	5200	0
bin	5300	0
scalar NetLEO.rte[73].queue[1] txBytes:count 10397
attr interpolationmode none
attr title "transmitting packet byte length, count"
attr unit bytes
scalar NetLEO.rte[73].queue[1] txBytes:sum 70803512
attr interpolationmode none
attr title "transmitting packet byte length, sum"
attr unit bytes
statistic NetLEO.rte[73].queue[1] txBytes:histogram
field count 10397
field mean 6809.9944214677
field stddev 13723.027257357
field min 152
field max 92700
field sum 70803512
field sqrsum 2439961597736
attr interpolationmode none
attr title "transmitting packet byte length, histogram"
attr unit bytes
bin	-inf	0
bin	0	6456
bin	2000	1832
bin	4000	45
bin	6000	176
bin	8000	132
bin	10000	168
bin	12000	120
bin	14000	68
bin	16000	20
bin	18000	64
bin	20000	120
bin	22000	460
bin	24000	44
bin	26000	56
bin	28000	64
bin	30000	24
bin	32000	0
bin	34000	0
bin	36000	24
bin	38000	0
bin	40000	20
bin	42000	4
bin	44000	184
bin	46000	44
bin	48000	0
bin	50000	24
bin	52000	32
bin	54000	0
bin	56000	0
bin	58000	0
bin	60000	24
bin	62000	0
bin	64000	16
bin	66000	56
bin	68000	64
bin	70000	8
bin	72000	0
bin	74000	0
bin	76000	0
bin	78000	0
bin	80000	0
bin	82000	0
bin	84000	0
bin	86000	0
bin	88000	0
bin	90000	0
bin	92000	48
bin	94000	0
scalar NetLEO.rte[73].queue[1] busy:timeavg 0
attr interpolationmode sample-hold
attr title "server busy state, timeavg"
scalar NetLEO.rte[73].queue[1] qlen:timeavg 0
attr interpolationmode sample-hold
attr title "queue length, timeavg"
scalar NetLEO.rte[73].queue[1] qlen:max 31
attr interpolationmode sample-hold
attr title "queue length, max"
scalar NetLEO.rte[73].queue[1] drop:count 0
attr interpolationmode none
attr title "dropped packet byte length, count"
attr unit bytes
scalar NetLEO.rte[73].queue[1] drop:sum 0
attr interpolationmode none
attr title "dropped packet byte length, sum"
attr unit bytes
scalar NetLEO.rte[73].queue[2] rxBytes:count 8309
attr interpolationmode none
attr title "received packet byte length, count"
attr unit bytes
scalar NetLEO.rte[73].queue[2] rxBytes:sum 88315360
attr interpolationmode none
attr title "received packet byte length, sum"
attr unit bytes
statistic NetLEO.rte[73].queue[2] rxBytes:histogram
field count 8309
field mean 10628.879528222
field stddev 17292.520313952
field min 152
field max 92700
field sum 88315360
field sqrsum 3423045020112
attr interpolationmode none
attr title "received packet byte length, histogram"
attr unit bytes
bin	-inf	0
bin	0	4486
bin	2000	990
bin	4000	33
bin	6000	176
bin	8000	228
bin	10000	180
bin	12000	220
bin	14000	60
bin	16000	16
bin	18000	52
bin	20000	176
bin	22000	688
bin	24000	60
bin	26000	84
bin	28000	64
bin	30000	20
bin	32000	0
bin	34000	0
bin	36000	28
bin	38000	0
bin	40000	52
bin	42000	4
bin	44000	276
bin	46000	60
bin	48000	0
bin	50000	20
bin	52000	32
bin	54000	0
bin	56000	0
bin	58000	0
bin	60000	20
bin	62000	0
bin	64000	48
bin	66000	60
bin	68000	84
bin	70000	12
bin	72000	0
bin	74000	0
bin	76000	0
bin	78000	0
bin	80000	0
bin	82000	0
bin	84000	0
bin	86000	0
bin	88000	0
bin	90000	0
bin	92000	80
bin	94000	0
scalar NetLEO.rte[73].queue[2] txBytes:count 229
attr interpolationmode none
attr title "transmitting packet byte length, count"
attr unit bytes
scalar NetLEO.rte[73].queue[2] txBytes:sum 262200
attr interpolationmode none
attr title "transmitting packet byte length, sum"
attr unit bytes
statistic NetLEO.rte[73].queue[2] txBytes:histogram
field count 229
field mean 1144.9781659389
field stddev 776.16178028186
field min 152
field max 4256
field sum 262200
field sqrsum 437566656
attr interpolationmode none
attr title "transmitting packet byte length, histogram"
attr unit bytes
bin	-inf	0
bin	0	0
bin	100	12
bin	200	0
bin	300	24
bin	400	26
bin	500	0
bin	600	29
bin	700	13
bin	800	0
bin	900	13
bin	1000	6
bin	1100	0
bin	1200	20
bin	1300	7
bin	1400	0
bin	1500	12
bin	1600	9
bin	1700	0
bin	1800	19
bin	1900	8
bin	2000	0
bin	2100	9
bin	2200	5
bin	2300	0
bin	2400	10
bin	2500	1
bin	2600	0
bin	2700	2
bin	2800	0
bin	2900	0
bin	3000	1
bin	3100	0
bin	3200	0
bin	3300	0
bin	3400	0
bin	3500	0
bin	3600	1
bin	3700	0
bin	3800	0
bin	3900	1
bin	4000	0
bin	4100	0
bin	4200	1
bin	4300	0
bin	4400	0
bin	4500	0
bin	4600	0
bin	4700	0
bin	4800	0
bin	4900	0
bin	5000	0
bin	5100	0
bin	5200	0
bin	5300	0
scalar NetLEO.rte[73].queue[2] busy:timeavg 0
attr interpolationmode sample-hold
attr title "server busy state, timeavg"
scalar NetLEO.rte[73].queue[2] qlen:timeavg 0
attr interpolationmode sample-hold
attr title "queue length, timeavg"
scalar NetLEO.rte[73].queue[2] qlen:max 0
attr interpolationmode sample-hold
attr title "queue length, max"
scalar NetLEO.rte[73].queue[2] drop:count 0
attr interpolationmode none
attr title "dropped packet byte length, count"
attr unit bytes
scalar NetLEO.rte[73].queue[2] drop:sum 0
attr interpolationmode none
attr title "dropped packet byte length, sum"
attr unit bytes
scalar NetLEO.rte[73].queue[3] rxBytes:count 0
attr interpolationmode none
attr title "received packet byte length, count"
attr unit bytes
scalar NetLEO.rte[73].queue[3] rxBytes:sum 0
attr interpolationmode none
attr title "received packet byte length, sum"
attr unit bytes
statistic NetLEO.rte[73].queue[3] rxBytes:histogram
field count 0
field mean -nan
field stddev -nan
field min -nan
field max -nan
field sum 0
field sqrsum 0
attr interpolationmode none
attr title "received packet byte length, histogram"
attr unit bytes
bin	-inf	0
bin	0	0
bin	1	0
scalar NetLEO.rte[73].queue[3] txBytes:count 0
attr interpolationmode none
attr title "transmitting packet byte length, count"
attr unit bytes
scalar NetLEO.rte[73].queue[3] txBytes:sum 0
attr interpolationmode none
attr title "transmitting packet byte length, sum"
attr unit bytes
statistic NetLEO.rte[73].queue[3] txBytes:histogram
field count 0
field mean -nan
field stddev -nan
field min -nan
field max -nan
field sum 0
field sqrsum 0
attr interpolationmode none
attr title "transmitting packet byte length, histogram"
attr unit bytes
bin	-inf	0
bin	0	0
bin	1	0
scalar NetLEO.rte[73].queue[3] busy:timeavg 0
attr interpolationmode sample-hold
attr title "server busy state, timeavg"
scalar NetLEO.rte[73].queue[3] qlen:timeavg 0
attr interpolationmode sample-hold
attr title "queue length, timeavg"
scalar NetLEO.rte[73].queue[3] qlen:max 0
attr interpolationmode sample-hold
attr title "queue length, max"
scalar NetLEO.rte[73].queue[3] drop:count 0
attr interpolationmode none
attr title "dropped packet byte length, count"
attr unit bytes
scalar NetLEO.rte[73].queue[3] drop:sum 0
attr interpolationmode none
attr title "dropped packet byte length, sum"
attr unit bytes
statistic NetLEO.rte[74].app sourceAddress:histogram
field count 0
field mean -nan
field stddev -nan
field min -nan
field max -nan
field sum 0
field sqrsum 0
attr interpolationmode none
attr title "source address of arrived packets, histogram"
bin	-inf	0
bin	0	0
bin	1	0
statistic NetLEO.rte[74].app hopCount:histogram
field count 0
field mean -nan
field stddev -nan
field min -nan
field max -nan
field sum 0
field sqrsum 0
attr interpolationmode none
attr title "hop count of arrived packets, histogram"
bin	-inf	0
bin	0	0
bin	1	0
scalar NetLEO.rte[74].app hopCount:mean -nan
attr interpolationmode none
attr title "hop count of arrived packets, mean"
scalar NetLEO.rte[74].app hopCount:max -nan
attr interpolationmode none
attr title "hop count of arrived packets, max"
statistic NetLEO.rte[74].app endToEndDelay:histogram
field count 0
field mean -nan
field stddev -nan
field min -nan
field max -nan
field sum 0
field sqrsum 0
attr interpolationmode none
attr title "end-to-end delay of arrived packets, histogram"
attr unit s
bin	-inf	0
bin	0	0
bin	1	0
scalar NetLEO.rte[74].app endToEndDelay:mean -nan
attr interpolationmode none
attr title "end-to-end delay of arrived packets, mean"
attr unit s
scalar NetLEO.rte[74].app endToEndDelay:max -nan
attr interpolationmode none
attr title "end-to-end delay of arrived packets, max"
attr unit s
statistic NetLEO.rte[74].routing outputIf:histogram
field count 19032
field mean -0.090741908364859
field stddev 1.0138624244045
field min -1
field max 2
field sum -1727
field sqrsum 19719
attr interpolationmode none
attr title "output interface for each routed packet, histogram"
bin	-inf	0
bin	-2	0
bin	-1	10494
bin	0	0
bin	1	8309
bin	2	229
bin	3	0
scalar NetLEO.rte[74].routing drop:count 0
attr interpolationmode none
attr title "dropped packet byte length, count"
attr unit bytes
scalar NetLEO.rte[74].routing drop:sum 0
attr interpolationmode none
attr title "dropped packet byte length, sum"
attr unit bytes
scalar NetLEO.rte[74].queue[0] rxBytes:count 1496
attr interpolationmode none
attr title "received packet byte length, count"
attr unit bytes
scalar NetLEO.rte[74].queue[0] rxBytes:sum 27443384
attr interpolationmode none
attr title "received packet byte length, sum"
attr unit bytes
statistic NetLEO.rte[74].queue[0] rxBytes:histogram
field count 1496
field mean 18344.50802139
field stddev 20198.958161515
field min 304
field max 92700
field sum 27443384
field sqrsum 1113392254584
attr interpolationmode none
attr title "received packet byte length, histogram"
attr unit bytes
bin	-inf	0
bin	0	528
bin	2000	48
bin	4000	8
bin	6000	0
bin	8000	68
bin	10000	52
bin	12000	116
bin	14000	12
bin	16000	8
bin	18000	52
bin	20000	80
bin	22000	192
bin	24000	28
bin	26000	20
bin	28000	0
bin	30000	20
bin	32000	0
bin	34000	0
bin	36000	12
bin	38000	0
bin	40000	20
bin	42000	4
bin	44000	76
bin	46000	20
bin	48000	0
bin	50000	20
bin	52000	0
bin	54000	0
bin	56000	0
bin	58000	0
bin	60000	20
bin	62000	0
bin	64000	16
bin	66000	12
bin	68000	44
bin	70000	4
bin	72000	0
bin	74000	0
bin	76000	0
bin	78000	0
bin	80000	0
bin	82000	0
bin	84000	0
bin	86000	0
bin	88000	0
bin	90000	0
bin	92000	16
bin	94000	0
scalar NetLEO.rte[74].queue[0] txBytes:count 0
attr interpolationmode none
attr title "transmitting packet byte length, count"
attr unit bytes
scalar NetLEO.rte[74].queue[0] txBytes:sum 0
attr interpolationmode none
attr title "transmitting packet byte length, sum"
attr unit bytes
statistic NetLEO.rte[74].queue[0] txBytes:histogram
field count 0
field mean -nan
field stddev -nan
field min -nan
field max -nan
field sum 0
field sqrsum 0
attr interpolationmode none
attr title "transmitting packet byte length, histogram"
attr unit bytes
bin	-inf	0
bin	0	0
bin	1	0
scalar NetLEO.rte[74].queue[0] busy:timeavg 0
attr interpolationmode sample-hold
attr title "server busy state, timeavg"
scalar NetLEO.rte[74].queue[0] qlen:timeavg 0
attr interpolationmode sample-hold
attr title "queue length, timeavg"
scalar NetLEO.rte[74].queue[0] qlen:max 0
attr interpolationmode sample-hold
attr title "queue length, max"
scalar NetLEO.rte[74].queue[0] drop:count 0
attr interpolationmode none
attr title "dropped packet byte length, count"
attr unit bytes
scalar NetLEO.rte[74].queue[0] drop:sum 0
attr interpolationmode none
attr title "dropped packet byte length, sum"
attr unit bytes
scalar NetLEO.rte[74].queue[1] rxBytes:count 229
attr interpolationmode none
attr title "received packet byte length, count"
attr unit bytes
scalar NetLEO.rte[74].queue[1] rxBytes:sum 262200
attr interpolationmode none
attr title "received packet byte length, sum"
attr unit bytes
statistic NetLEO.rte[74].queue[1] rxBytes:histogram
field count 229
field mean 1144.9781659389
field stddev 776.16178028186
field min 152
field max 4256
field sum 262200
field sqrsum 437566656
attr interpolationmode none
attr title "received packet byte length, histogram"
attr unit bytes
bin	-inf	0
bin	0	0
bin	100	12
bin	200	0
bin	300	24
bin	400	26
bin	500	0
bin	600	29
bin	700	13
bin	800	0
bin	900	13
bin	1000	6
bin	1100	0
bin	1200	20
bin	1300	7
bin	1400	0
bin	1500	12
bin	1600	9
bin	1700	0
bin	1800	19
bin	1900	8
bin	2000	0
bin	2100	9
bin	2200	5
bin	2300	0
bin	2400	10
bin	2500	1
bin	2600	0
bin	2700	2
bin	2800	0
bin	2900	0
bin	3000	1
bin	3100	0
bin	3200	0
bin	3300	0
bin	3400	0
bin	3500	0
bin	3600	1
bin	3700	0
bin	3800	0
bin	3900	1
bin	4000	0
bin	4100	0
bin	4200	1
bin	4300	0
bin	4400	0
bin	4500	0
bin	4600	0
bin	4700	0
bin	4800	0
bin	4900	0
bin	5000	0
bin	5100	0
bin	5200	0
bin	5300	0
scalar NetLEO.rte[74].queue[1] txBytes:count 8309
attr interpolationmode none
attr title "transmitting packet byte length, count"
attr unit bytes
scalar NetLEO.rte[74].queue[1] txBytes:sum 88315360
attr interpolationmode none
attr title "transmitting packet byte length, sum"
attr unit bytes
statistic NetLEO.rte[74].queue[1] txBytes:histogram
field count 8309
field mean 10628.879528222
field stddev 17292.520313952
field min 152
field max 92700
field sum 88315360
field sqrsum 3423045020112
attr interpolationmode none
attr title "transmitting packet byte length, histogram"
attr unit bytes
bin	-inf	0
bin	0	4486
bin	2000	990
bin	4000	33
bin	6000	176
bin	8000	228
bin	10000	180
bin	12000	220
bin	14000	60
bin	16000	16
bin	18000	52
bin	20000	176
bin	22000	688
bin	24000	60
bin	26000	84
bin	28000	64
bin	30000	20
bin	32000	0
bin	34000	0
bin	36000	28
bin	38000	0
bin	40000	52
bin	42000	4
bin	44000	276
bin	46000	60
bin	48000	0
bin	50000	20
bin	52000	32
bin	54000	0
bin	56000	0
bin	58000	0
bin	60000	20
bin	62000	0
bin	64000	48
bin	66000	60
bin	68000	84
bin	70000	12
bin	72000	0
bin	74000	0
bin	76000	0
bin	78000	0
bin	80000	0
bin	82000	0
bin	84000	0
bin	86000	0
bin	88000	0
bin	90000	0
bin	92000	80
bin	94000	0
scalar NetLEO.rte[74].queue[1] busy:timeavg 0
attr interpolationmode sample-hold
attr title "server busy state, timeavg"
scalar NetLEO.rte[74].queue[1] qlen:timeavg 0
attr interpolationmode sample-hold
attr title "queue length, timeavg"
scalar NetLEO.rte[74].queue[1] qlen:max 31
attr interpolationmode sample-hold
attr title "queue length, max"
scalar NetLEO.rte[74].queue[1] drop:count 0
attr interpolationmode none
attr title "dropped packet byte length, count"
attr unit bytes
scalar NetLEO.rte[74].queue[1] drop:sum 0
attr interpolationmode none
attr title "dropped packet byte length, sum"
attr unit bytes
scalar NetLEO.rte[74].queue[2] rxBytes:count 8769
attr interpolationmode none
attr title "received packet byte length, count"
attr unit bytes
scalar NetLEO.rte[74].queue[2] rxBytes:sum 87428264
attr interpolationmode none
attr title "received packet byte length, sum"
attr unit bytes
statistic NetLEO.rte[74].queue[2] rxBytes:histogram
field count 8769
field mean 9970.1521268104
field stddev 16621.223125787
field min 152
field max 92700
field sum 87428264
field sqrsum 3293965122536
attr interpolationmode none
attr title "received packet byte length, histogram"
attr unit bytes
bin	-inf	0
bin	0	4806
bin	2000	1130
bin	4000	41
bin	6000	176
bin	8000	200
bin	10000	216
bin	12000	232
bin	14000	72
bin	16000	24
bin	18000	104
bin	20000	192
bin	22000	600
bin	24000	56
bin	26000	72
bin	28000	64
bin	30000	40
bin	32000	0
bin	34000	0
bin	36000	24
bin	38000	0
bin	40000	40
bin	42000	8
bin	44000	248
bin	46000	48
bin	48000	0
bin	50000	40
bin	52000	32
bin	54000	0
bin	56000	0
bin	58000	0
bin	60000	40
bin	62000	0
bin	64000	32
bin	66000	56
bin	68000	104
bin	70000	8
bin	72000	0
bin	74000	0
bin	76000	0
bin	78000	0
bin	80000	0
bin	82000	0
bin	84000	0
bin	86000	0
bin	88000	0
bin	90000	0
bin	92000	64
bin	94000	0
scalar NetLEO.rte[74].queue[2] txBytes:count 229
attr interpolationmode none
attr title "transmitting packet byte length, count"
attr unit bytes
scalar NetLEO.rte[74].queue[2] txBytes:sum 262200
attr interpolationmode none
attr title "transmitting packet byte length, sum"
attr unit bytes
statistic NetLEO.rte[74].queue[2] txBytes:histogram
field count 229
field mean 1144.9781659389
field stddev 776.16178028186
field min 152
field max 4256
field sum 262200
field sqrsum 437566656
attr interpolationmode none
attr title "transmitting packet byte length, histogram"
attr unit bytes
bin	-inf	0
bin	0	0
bin	100	12
bin	200	0
bin	300	24
bin	400	26
bin	500	0
bin	600	29
bin	700	13
bin	800	0
bin	900	13
bin	1000	6
bin	1100	0
bin	1200	20
bin	1300	7
bin	1400	0
bin	1500	12
bin	1600	9
bin	1700	0
bin	1800	19
bin	1900	8
bin	2000	0
bin	2100	9
bin	2200	5
bin	2300	0
bin	2400	10
bin	2500	1
bin	2600	0
bin	2700	2
bin	2800	0
bin	2900	0
bin	3000	1
bin	3100	0
bin	3200	0
bin	3300	0
bin	3400	0
bin	3500	0
bin	3600	1
bin	3700	0
bin	3800	0
bin	3900	1
bin	4000	0
bin	4100	0
bin	4200	1
bin	4300	0
bin	4400	0
bin	4500	0
bin	4600	0
bin	4700	0
bin	4800	0
bin	4900	0
bin	5000	0
bin	5100	0
bin	5200	0
bin	5300	0
scalar NetLEO.rte[74].queue[2] busy:timeavg 0
attr interpolationmode sample-hold
attr title "server busy state, timeavg"
scalar NetLEO.rte[74].queue[2] qlen:timeavg 0
attr interpolationmode sample-hold
attr title "queue length, timeavg"
scalar NetLEO.rte[74].queue[2] qlen:max 0
attr interpolationmode sample-hold
attr title "queue length, max"
scalar NetLEO.rte[74].queue[2] drop:count 0
attr interpolationmode none
attr title "dropped packet byte length, count"
attr unit bytes
scalar NetLEO.rte[74].queue[2] drop:sum 0
attr interpolationmode none
attr title "dropped packet byte length, sum"
attr unit bytes
scalar NetLEO.rte[74].queue[3] rxBytes:count 0
attr interpolationmode none
attr title "received packet byte length, count"
attr unit bytes
scalar NetLEO.rte[74].queue[3] rxBytes:sum 0
attr interpolationmode none
attr title "received packet byte length, sum"
attr unit bytes
statistic NetLEO.rte[74].queue[3] rxBytes:histogram
field count 0
field mean -nan
field stddev -nan
field min -nan
field max -nan
field sum 0
field sqrsum 0
attr interpolationmode none
attr title "received packet byte length, histogram"
attr unit bytes
bin	-inf	0
bin	0	0
bin	1	0
scalar NetLEO.rte[74].queue[3] txBytes:count 0
attr interpolationmode none
attr title "transmitting packet byte length, count"
attr unit bytes
scalar NetLEO.rte[74].queue[3] txBytes:sum 0
attr interpolationmode none
attr title "transmitting packet byte length, sum"
attr unit bytes
statistic NetLEO.rte[74].queue[3] txBytes:histogram
field count 0
field mean -nan
field stddev -nan
field min -nan
field max -nan
field sum 0
field sqrsum 0
attr interpolationmode none
attr title "transmitting packet byte length, histogram"
attr unit bytes
bin	-inf	0
bin	0	0
bin	1	0
scalar NetLEO.rte[74].queue[3] busy:timeavg 0
attr interpolationmode sample-hold
attr title "server busy state, timeavg"
scalar NetLEO.rte[74].queue[3] qlen:timeavg 0
attr interpolationmode sample-hold
attr title "queue length, timeavg"
scalar NetLEO.rte[74].queue[3] qlen:max 0
attr interpolationmode sample-hold
attr title "queue length, max"
scalar NetLEO.rte[74].queue[3] drop:count 0
attr interpolationmode none
attr title "dropped packet byte length, count"
attr unit bytes
scalar NetLEO.rte[74].queue[3] drop:sum 0
attr interpolationmode none
attr title "dropped packet byte length, sum"
attr unit bytes

